
ANSYS(R) Fluid Dynamics

Executing from: D:\Softwares\Ansys 2020 R1\ANSYS Inc\v201\AFD\bin\afd.bat 

2020 R1

Point Releases and Patches installed:

ANSYS, Inc. Products 2020 R1
SpaceClaim 2020 R1
AIM 2020 R1
Live (includes SpaceClaim) 2020 R1
Autodyn 2020 R1
LS-DYNA 2020 R1
CFX (includes CFD-Post) 2020 R1
Chemkin 2020 R1
EnSight 2020 R1
FENSAP-ICE 2020 R1
Fluent (includes CFD-Post) 2020 R1
Forte 2020 R1
Polyflow (includes CFD-Post) 2020 R1
TurboGrid 2020 R1
ICEM CFD 2020 R1
Aqwa 2020 R1
Mechanical Products 2020 R1
Additive 2020 R1
ANSYS Sherlock 2020 R1
Icepak (includes CFD-Post) 2020 R1
ACIS Geometry Interface 2020 R1
AutoCAD Geometry Interface 2020 R1
Catia, Version 4 Geometry Interface 2020 R1
Catia, Version 5 Geometry Interface 2020 R1
Catia, Version 6 Geometry Interface 2020 R1
Creo Elements/Direct Modeling Geometry Interface 2020 R1
Creo Parametric Geometry Interface 2020 R1
Inventor Geometry Interface 2020 R1
JTOpen Geometry Interface 2020 R1
NX Geometry Interface 2020 R1
Parasolid Geometry Interface  2020 R1
Solid Edge Geometry Interface 2020 R1
SOLIDWORKS Geometry Interface 2020 R1
ANSYS, Inc. License Manager 2020 R1 

(c) 2014-2019 ANSYS, Inc. All rights reserved. Unauthorized use, distribution or duplication is prohibited. This product is subject to U.S. laws governing export and re-export. For full Legal Notice, see documentation.

Host spawning Node 0 on machine "DESKTOP-442D8MG" (win64).
WARNING: No cached password or password provided.
         use '-pass' or '-cache' to provide password
Host 0 -- ip 192.168.0.192 -- ranks 0 - 1

 host | 0
======|======
    0 : SHM

 Prot -  All Intra-node communication is: SHM


----------------------------------------------------------------------------------
ID          Hostname         Core  O.S.         PID    Vendor                     
----------------------------------------------------------------------------------
e1          DESKTOP-442D8MG  2/8  Windows-x64  13868  Intel(R) Core(TM) i5-8300H 
e0*         DESKTOP-442D8MG  1/8  Windows-x64  6620   Intel(R) Core(TM) i5-8300H 
controller  DESKTOP-442D8MG       Windows-x64  1340   Intel(R) Core(TM) i5-8300H 

MPI Option Selected: ibmmpi
Selected system interconnect: ethernet
----------------------------------------------------------------------------------

Cleanup script file is C:\Users\Safayat\AppData\Local\Temp\eiqpcqyv.urp\cleanup-afd-DESKTOP-442D8MG-1340.bat
Note: Rank = 0: Process affinity not being set (3).
Note: Rank = 1: Process affinity not being set (3).

Importing Mesh...
	auto partitioning mesh by Metis (fast),
	distributing mesh
		parts..,
		faces..,
		nodes..,
		cells..,
	Creating polyhedra zones.
	Processing face zones...................................................................................................................................
	Processing cell zones..
	Building polyhedra mesh...............................
Note: Rank = 0: Process affinity not being set (3).
Note: Rank = 1: Process affinity not being set (3).

       Clearing partially read grid.
Done.

===============================================================================
                                Mesh Statistics                                
Region Name                                                               Value
-------------------------------------------------------------------------------
PhysicsRegion 1
    Number of cell zones                                                      1
    Number of cells                                                      13 988
        Polyhedral                                                       13 988
    Number of face zones                                                     65
    Number of faces                                                      56 648
    Bounding Box (m)                
        Minimum                              [-1.200e-02  0.000e+00  4.000e-03]
        Maximum                              [ 1.300e-01  1.100e-02  1.100e-02]
    Volume (m3)                                                       4.711e-06
    Minimum orthogonal quality                                        1.028e-01
    Maximum aspect ratio                                              8.100e+01

Total                               
    Number of cells                                                      13 988
    Number of faces                                                      56 648
    Number of nodes                                                      30 794
-------------------------------------------------------------------------------

===============================================================================
                                  Mesh Check                                   
-------------------------------------------------------------------------------
Cell volume                                                                 Ok
Face area                                                                   Ok
Face handedness correction                                            Modified
    Centroid modified in 1 cell(s) to prevent left-handed faces.
Face handedness                                                             Ok
-------------------------------------------------------------------------------

===============================================================================
                              Partition Statistics
Region Name              min  dev %         max  dev %             sum stddev %
-------------------------------------------------------------------------------
PhysicsRegion 1
  Interior Cells        6612   -5.5        7376    5.5           13988      5.5
  Interior Faces       27990   -1.7       28963    1.7           56953      1.7
  Exterior Cells         128   -0.4         129    0.4             257      0.4
  Exterior Faces         662   -0.5         668    0.5            1330      0.5
       Neighbors           1                  1
Total
  Interior Cells        6612   -5.5        7376    5.5           13988      5.5
  Interior Faces       27990   -1.7       28963    1.7           56953      1.7
  Exterior Cells         128   -0.4         129    0.4             257      0.4
  Exterior Faces         662   -0.5         668    0.5            1330      0.5
       Neighbors           1                  1
-------------------------------------------------------------------------------


===============================================================================
                               Data Model State                                
-------------------------------------------------------------------------------
Analysis:DefaultAnalysis
  SolverName = FLUX
  AnalysisType:
    Option = Steady
  PhysicsRegion:PhysicsRegion 1
    PhysicsRegionLocation = BODY2
    Boundary:Boundary 1
      BoundaryLocations = FACE100,FACE101,FACE102,FACE103,FACE104,FACE105,FACE106,FACE107,FACE108,FACE109,FACE110,FACE111,FACE112,FACE113,FACE114,FACE115,FACE116,FACE117,FACE118,FACE119,FACE120,FACE121,FACE122,FACE123,FACE124,FACE125,FACE126,FACE127,FACE128,FACE129,FACE130,FACE131,FACE132,FACE133,FACE134,FACE135,FACE136,FACE137,FACE138,FACE139,FACE140,FACE141,FACE142,FACE143,FACE144,FACE145,FACE146,FACE147,FACE148,FACE149,FACE150,FACE151,FACE152,FACE153,FACE154,FACE155,FACE156,FACE157,FACE158,FACE159,FACE160,FACE161,FACE162
      BoundaryType = Wall
    Boundary:Boundary 2
      BoundaryLocations = FACE163
      BoundaryType = Inlet
      Energy:
        Temperature = 25 [C]
      Flow:
        Velocity:
          Magnitude = 15 [m s^-1]
    PhaseModels:
      TurbulenceModel:
        RANSModel:
          CurvatureCorrection = Off
    PhaseDefinitions:
      PhaseDefinition:MaterialAssignment 1
        MaterialBehaviorName = MaterialAtState 1
        MaterialDistribution = Continuous
    PhysicsType:
      PhysicsRegionType = Fluid
      PhysicsTypeList = Fluid,Thermal
Library:
  MaterialsDB:
    Material:Material 2
      SolidProperties:
        ThermalConductivity:
          Option = Value
          PropertyValue = 148 [W m^-1 C^-1]
        SpecificHeatCapacityCp:
          Option = Value
          PropertyValue = 712 [J kg^-1 C^-1]
        Density:
          Option = Value
          PropertyValue = 2330 [kg m^-3]
    Material:Material 1
      MolarMass = 0.02896546 [kg mol^-1]
      GasProperties:
        ThermalConductivity:
          Option = Value
          PropertyValue = 0.0262469312859 [W m^-1 K^-1]
        SpecificHeatCapacityCp:
          Option = Value
          PropertyValue = 1006.30813404 [J kg^-1 K^-1]
        DynamicViscosity:
          Option = Value
          PropertyValue = 1.84480821367E-05 [Pa s]
        Density:
          Option = Value
          PropertyValue = 1.18431848391 [kg m^-3]
    MaterialBehavior:MaterialAtState 1
      MaterialModel = ConstantProperties
      MaterialName = Material 1
      PhysicalState = Gas
    MaterialBehavior:MaterialAtState 2
      MaterialModel = ConstantProperties
      MaterialName = Material 2
      PhysicalState = Solid

-------------------------------------------------------------------------------


===============================================================================
                               Residual History                                
  iter  continuity   xvelocity   yvelocity   zvelocity    energy-T         tke         tef  
     1  3.0498e-02  2.7221e-02  1.4252e-16  1.4987e-16  7.2964e-03  9.6346e-02  8.9132e-02  
     2  7.4629e-03  5.1579e-02  6.0832e-03  5.5557e-03  3.9373e-03  2.6138e-01  2.9385e-02  
     3  4.5867e-03  3.3124e-02  7.3573e-03  7.3772e-03  2.2779e-03  1.1201e-01  1.2866e-02  
     4  2.5551e-03  2.0250e-02  5.5626e-03  5.3159e-03  1.2068e-03  5.7200e-02  6.1440e-03  
     5  1.6032e-03  1.3261e-02  4.0363e-03  3.5582e-03  5.9274e-04  3.3605e-02  3.0755e-03  
     6  1.6087e-03  9.6801e-03  3.3170e-03  2.7658e-03  4.2669e-04  2.2732e-02  1.7317e-03  
     7  1.6309e-03  7.7170e-03  2.9800e-03  2.4869e-03  3.8643e-04  1.6953e-02  1.0501e-03  
     8  1.6183e-03  6.2680e-03  2.7889e-03  2.3536e-03  3.5951e-04  1.2774e-02  8.1672e-04  
     9  1.4962e-03  5.2929e-03  2.7166e-03  2.2495e-03  3.3663e-04  9.8715e-03  5.7223e-04  
    10  1.4192e-03  4.4342e-03  2.6655e-03  2.1621e-03  3.2434e-04  7.9327e-03  4.9355e-04  
    11  1.2478e-03  3.8667e-03  2.5891e-03  2.0991e-03  3.1509e-04  6.6937e-03  3.1561e-04  
    12  1.1184e-03  3.5040e-03  2.5157e-03  2.0130e-03  2.8393e-04  5.9128e-03  2.7158e-04  
    13  9.5357e-04  3.3105e-03  2.4429e-03  1.8957e-03  2.6203e-04  5.5792e-03  1.9587e-04  
    14  8.0680e-04  3.1785e-03  2.3674e-03  1.7354e-03  2.3622e-04  5.5276e-03  1.5872e-04  
    15  6.8582e-04  3.0830e-03  2.2400e-03  1.6028e-03  2.4694e-04  5.6083e-03  1.3731e-04  
    16  5.9673e-04  3.0529e-03  2.1754e-03  1.5413e-03  2.1251e-04  5.6343e-03  1.2515e-04  
    17  5.1661e-04  3.0202e-03  2.0950e-03  1.4838e-03  2.3766e-04  5.5067e-03  1.1413e-04  
    18  4.4909e-04  2.9912e-03  2.0514e-03  1.4850e-03  2.0837e-04  5.2566e-03  1.1568e-04  
    19  3.9987e-04  2.8409e-03  1.9333e-03  1.4442e-03  2.1098e-04  4.8613e-03  1.0541e-04  
    20  3.6268e-04  2.6862e-03  1.8741e-03  1.4199e-03  2.0612e-04  4.3991e-03  9.6777e-05  
    21  3.3685e-04  2.5538e-03  1.8139e-03  1.3922e-03  2.0343e-04  3.9225e-03  8.7322e-05  
    22  3.1936e-04  2.4332e-03  1.7498e-03  1.3414e-03  1.9212e-04  3.4879e-03  8.1405e-05  
    23  3.0813e-04  2.3278e-03  1.6874e-03  1.2797e-03  1.7468e-04  3.1049e-03  7.8979e-05  
    24  3.0396e-04  2.2660e-03  1.6902e-03  1.2148e-03  1.6524e-04  2.7112e-03  7.2359e-05  
    25  2.9852e-04  2.1273e-03  1.6069e-03  1.1272e-03  1.5960e-04  2.3814e-03  7.0334e-05  
  iter  continuity   xvelocity   yvelocity   zvelocity    energy-T         tke         tef  
    26  2.9073e-04  2.0555e-03  1.4837e-03  1.0649e-03  1.7055e-04  2.1405e-03  7.2713e-05  
    27  2.8651e-04  2.0383e-03  1.4058e-03  9.9700e-04  1.5024e-04  1.9097e-03  6.8751e-05  
    28  2.7976e-04  1.9169e-03  1.3073e-03  9.5299e-04  1.7520e-04  1.7332e-03  6.5124e-05  
    29  2.6941e-04  1.9131e-03  1.2800e-03  8.9404e-04  1.5662e-04  1.6229e-03  6.9106e-05  
    30  2.6511e-04  1.7224e-03  1.1119e-03  8.4329e-04  1.4291e-04  1.5200e-03  6.1985e-05  
    31  2.6188e-04  1.6699e-03  1.0861e-03  8.1649e-04  1.3525e-04  1.4358e-03  5.4491e-05  
    32  2.6293e-04  1.5778e-03  1.0302e-03  7.8505e-04  1.3769e-04  1.3550e-03  9.1679e-05  
    33  2.5527e-04  1.5187e-03  9.6709e-04  7.6888e-04  1.4564e-04  1.3667e-03  7.8615e-05  
    34  2.5231e-04  1.4513e-03  9.0867e-04  7.3819e-04  1.3948e-04  1.2972e-03  7.8449e-05  
    35  2.4627e-04  1.3901e-03  8.7564e-04  7.1585e-04  1.3054e-04  1.3203e-03  5.5816e-05  
    36  2.3603e-04  1.3062e-03  8.2948e-04  6.9375e-04  1.1839e-04  1.3694e-03  4.7223e-05  
    37  2.2772e-04  1.2059e-03  7.9007e-04  6.6734e-04  1.1493e-04  1.3806e-03  3.6056e-05  
    38  2.2361e-04  1.1230e-03  7.5749e-04  6.5044e-04  1.1611e-04  1.4205e-03  4.2323e-05  
    39  2.1745e-04  1.0534e-03  7.2606e-04  6.3182e-04  1.3015e-04  1.2128e-03  3.5055e-05  
    40  2.0708e-04  1.0748e-03  7.6425e-04  6.1611e-04  1.2116e-04  9.4306e-04  5.1870e-05  
    41  2.0427e-04  9.3599e-04  6.8423e-04  5.7349e-04  1.3537e-04  8.4653e-04  8.3089e-05  
    42  1.9633e-04  8.7006e-04  6.2548e-04  5.4511e-04  1.4741e-04  8.1464e-04  7.6966e-05  
    43  1.8581e-04  8.5688e-04  6.0705e-04  5.2868e-04  1.3197e-04  7.5764e-04  3.3574e-05  
    44  1.8731e-04  7.9941e-04  5.7762e-04  5.0525e-04  1.4333e-04  7.7565e-04  1.5904e-04  
    45  1.9111e-04  8.1681e-04  6.0385e-04  4.8976e-04  1.6488e-04  7.7132e-04  1.1067e-04  
    46  1.6928e-04  7.6115e-04  5.4142e-04  4.6949e-04  1.1633e-04  7.2846e-04  8.2378e-05  
    47  1.6238e-04  7.0010e-04  5.1058e-04  4.5435e-04  1.1531e-04  6.8944e-04  4.9187e-05  
    48  1.5965e-04  6.6128e-04  4.8206e-04  4.4162e-04  1.2100e-04  6.8078e-04  3.6195e-05  
    49  1.5634e-04  6.3240e-04  4.6182e-04  4.2782e-04  1.1388e-04  6.7445e-04  2.8302e-05  
    50  1.5410e-04  5.9455e-04  4.3942e-04  4.1253e-04  1.2435e-04  6.9166e-04  2.1563e-05  
  iter  continuity   xvelocity   yvelocity   zvelocity    energy-T         tke         tef  
    51  1.5128e-04  6.1724e-04  4.4695e-04  4.1372e-04  1.2147e-04  7.3012e-04  1.9889e-05  
    52  1.5525e-04  5.7996e-04  4.2835e-04  3.8895e-04  1.2666e-04  7.4812e-04  1.0046e-04  
    53  1.5841e-04  6.7071e-04  4.7787e-04  3.7873e-04  1.3096e-04  7.0141e-04  4.8942e-05  
    54  1.4799e-04  6.5211e-04  4.1523e-04  3.8173e-04  1.0961e-04  6.6567e-04  3.9407e-05  
    55  1.4649e-04  6.1185e-04  4.3209e-04  3.4586e-04  1.0659e-04  6.4408e-04  2.3500e-05  
    56  1.4541e-04  5.0176e-04  3.5620e-04  3.2315e-04  1.2096e-04  6.3153e-04  2.1761e-05  
    57  1.4332e-04  5.2418e-04  3.8134e-04  3.1974e-04  1.1498e-04  6.1633e-04  1.6350e-05  
    58  1.4060e-04  4.4991e-04  3.6507e-04  2.9696e-04  1.1609e-04  5.8667e-04  2.3841e-05  
    59  1.3765e-04  4.3032e-04  3.4612e-04  2.9169e-04  1.1416e-04  5.4391e-04  2.6268e-05  
    60  1.3711e-04  4.0806e-04  3.3911e-04  2.7919e-04  1.1365e-04  4.9634e-04  1.7957e-05  
    61  1.3644e-04  3.9463e-04  3.3033e-04  2.7006e-04  1.1077e-04  4.5832e-04  1.2330e-05  
    62  1.3571e-04  3.7434e-04  3.2106e-04  2.6382e-04  1.0895e-04  4.2808e-04  1.5256e-05  
    63  1.3650e-04  3.6617e-04  3.2036e-04  2.5927e-04  1.1024e-04  3.9787e-04  3.8062e-05  
    64  1.3626e-04  3.5482e-04  3.1008e-04  2.5589e-04  1.0908e-04  3.6122e-04  2.7256e-05  
    65  1.3354e-04  3.4517e-04  3.0855e-04  2.5425e-04  1.0426e-04  3.3668e-04  1.9155e-05  
    66  1.3250e-04  3.3540e-04  2.9895e-04  2.5281e-04  1.0362e-04  3.2106e-04  1.2622e-05  
    67  1.3239e-04  3.2983e-04  2.9292e-04  2.5033e-04  1.0313e-04  3.0797e-04  1.1243e-05  
    68  1.3437e-04  3.2731e-04  2.9049e-04  2.5004e-04  1.0848e-04  3.2041e-04  5.9138e-05  
    69  1.4193e-04  3.4086e-04  2.9473e-04  2.5228e-04  1.0681e-04  3.8261e-04  1.1066e-04  
    70  1.4683e-04  3.6506e-04  3.0729e-04  2.6119e-04  1.5231e-04  3.7365e-04  1.0589e-04  
    71  1.3524e-04  3.7746e-04  2.9291e-04  2.5559e-04  9.7915e-05  3.1165e-04  5.4650e-05  
    72  1.3254e-04  3.3885e-04  2.8562e-04  2.5470e-04  1.0124e-04  2.7445e-04  2.8005e-05  
    73  1.3176e-04  3.2270e-04  2.7706e-04  2.4627e-04  9.9393e-05  2.6100e-04  1.7821e-05  
    74  1.3749e-04  3.2326e-04  2.8188e-04  2.4820e-04  1.2915e-04  3.7586e-04  1.4620e-04  
    75  1.5434e-04  3.7969e-04  2.9179e-04  2.5463e-04  9.8395e-05  3.4427e-04  8.9452e-05  
  iter  continuity   xvelocity   yvelocity   zvelocity    energy-T         tke         tef  
    76  1.5527e-04  3.3594e-04  2.9206e-04  2.5577e-04  9.9328e-05  3.4167e-04  4.3062e-05  
    77  1.5162e-04  3.1657e-04  2.8537e-04  2.5069e-04  9.5393e-05  3.7899e-04  2.6894e-05  
    78  1.4582e-04  3.0751e-04  2.7647e-04  2.4506e-04  1.1739e-04  4.4283e-04  1.1106e-04  
    79  1.4065e-04  3.4538e-04  2.8443e-04  2.4754e-04  9.9882e-05  4.5095e-04  7.4295e-05  
    80  1.3718e-04  3.2851e-04  2.7867e-04  2.4785e-04  1.0127e-04  4.5720e-04  3.5701e-05  
    81  1.3545e-04  3.2160e-04  2.6885e-04  2.4265e-04  9.8482e-05  4.6448e-04  2.3662e-05  
    82  1.3499e-04  3.1856e-04  2.6306e-04  2.4048e-04  9.6375e-05  4.7787e-04  3.0293e-05  
    83  1.3548e-04  3.1865e-04  2.5854e-04  2.4022e-04  9.4313e-05  4.7453e-04  2.2162e-05  
    84  1.3555e-04  3.1772e-04  2.5259e-04  2.3721e-04  9.2774e-05  4.5775e-04  1.5879e-05  
    85  1.3581e-04  3.1464e-04  2.4876e-04  2.3387e-04  9.1928e-05  4.3467e-04  1.2441e-05  
    86  1.3563e-04  3.0711e-04  2.3963e-04  2.3013e-04  9.1230e-05  4.1029e-04  1.1593e-05  
    87  1.3535e-04  2.9828e-04  2.3205e-04  2.2618e-04  9.1297e-05  3.8300e-04  1.4409e-05  
    88  1.3445e-04  2.8886e-04  2.2533e-04  2.2222e-04  9.1215e-05  3.5526e-04  9.7942e-06  
    89  1.3373e-04  2.7908e-04  2.2022e-04  2.1940e-04  9.1676e-05  3.2685e-04  1.4078e-05  
    90  1.3221e-04  2.7155e-04  2.1408e-04  2.1629e-04  9.1885e-05  3.0693e-04  1.5118e-05  
    91  1.3036e-04  2.7963e-04  2.2451e-04  2.1649e-04  9.1400e-05  2.8357e-04  1.0602e-05  
    92  1.2941e-04  2.6364e-04  2.1680e-04  2.1302e-04  8.9831e-05  2.7142e-04  1.4040e-05  
    93  1.2903e-04  2.5678e-04  2.0949e-04  2.1083e-04  8.9115e-05  2.5810e-04  1.0627e-05  
    94  1.2858e-04  2.5533e-04  2.0636e-04  2.0932e-04  8.8839e-05  2.4405e-04  8.9478e-06  
    95  1.2869e-04  2.5314e-04  2.0913e-04  2.0842e-04  8.8137e-05  2.3182e-04  8.3393e-06  
    96  1.3387e-04  2.5347e-04  2.0690e-04  2.0891e-04  1.2425e-04  3.6132e-04  1.5306e-04  
    97  1.4827e-04  3.5483e-04  2.3981e-04  2.2448e-04  1.1393e-04  2.7008e-04  5.1367e-05  
    98  1.3478e-04  3.2752e-04  2.3130e-04  2.2277e-04  1.0110e-04  2.4498e-04  8.0387e-05  
    99  1.3137e-04  3.1002e-04  2.4296e-04  2.2727e-04  8.6333e-05  2.1187e-04  3.9255e-05  
   100  1.2952e-04  2.7694e-04  2.2390e-04  2.1766e-04  8.6457e-05  1.9874e-04  2.1052e-05  
  iter  continuity   xvelocity   yvelocity   zvelocity    energy-T         tke         tef  
   101  1.2910e-04  2.7518e-04  2.1841e-04  2.1463e-04  8.4028e-05  2.1530e-04  2.8896e-05  
   102  1.2990e-04  2.9585e-04  2.3047e-04  2.1893e-04  8.3056e-05  2.2156e-04  1.8375e-05  
   103  1.3063e-04  2.9264e-04  2.2672e-04  2.1622e-04  8.3123e-05  2.2555e-04  1.2313e-05  
   104  1.3148e-04  2.8840e-04  2.2513e-04  2.1529e-04  8.1689e-05  2.3049e-04  1.1337e-05  
   105  1.3438e-04  2.9118e-04  2.2682e-04  2.1569e-04  9.9081e-05  2.7513e-04  8.0693e-05  
   106  1.3560e-04  3.4955e-04  2.6121e-04  2.2389e-04  1.0612e-04  2.6999e-04  5.6343e-05  
   107  1.2955e-04  3.2102e-04  2.4719e-04  2.1829e-04  8.2999e-05  2.3900e-04  3.0089e-05  
   108  1.2958e-04  3.0337e-04  2.4561e-04  2.2201e-04  8.9562e-05  2.3263e-04  3.3322e-05  
   109  1.3024e-04  2.9611e-04  2.4317e-04  2.1992e-04  8.5455e-05  2.2306e-04  2.0229e-05  
   110  1.2961e-04  2.8731e-04  2.4567e-04  2.2204e-04  8.6621e-05  2.2108e-04  2.3559e-05  
   111  1.2999e-04  2.9389e-04  2.5121e-04  2.2596e-04  8.4940e-05  2.1613e-04  1.4333e-05  
   112  1.2978e-04  2.8825e-04  2.5676e-04  2.2804e-04  8.4602e-05  2.1661e-04  1.2936e-05  
   113  1.2933e-04  2.8748e-04  2.6360e-04  2.3197e-04  8.4694e-05  2.1773e-04  1.2857e-05  
   114  1.2942e-04  2.8717e-04  2.7061e-04  2.3496e-04  8.4918e-05  2.2206e-04  1.3569e-05  
   115  1.2945e-04  2.8829e-04  2.7803e-04  2.3840e-04  8.4827e-05  2.2626e-04  1.3952e-05  
   116  1.2898e-04  2.8720e-04  2.8537e-04  2.4117e-04  8.6905e-05  2.3444e-04  2.2876e-05  
   117  1.2866e-04  2.8958e-04  2.9399e-04  2.4534e-04  8.6237e-05  2.3372e-04  1.7364e-05  
   118  1.2899e-04  2.9111e-04  3.0273e-04  2.4834e-04  8.6678e-05  2.3454e-04  1.6122e-05  
   119  1.2959e-04  2.8909e-04  3.0815e-04  2.5078e-04  8.6111e-05  2.3307e-04  1.6190e-05  
   120  1.2938e-04  2.8677e-04  3.1335e-04  2.5256e-04  8.5989e-05  2.3222e-04  1.7035e-05  
   121  1.2961e-04  2.8615e-04  3.1895e-04  2.5560e-04  8.6034e-05  2.1340e-04  1.7702e-05  
   122  1.3002e-04  2.8856e-04  3.2380e-04  2.5785e-04  8.5798e-05  2.0366e-04  1.6982e-05  
   123  1.2944e-04  2.8656e-04  3.2634e-04  2.5812e-04  8.6959e-05  2.0033e-04  2.4415e-05  
   124  1.2958e-04  2.8501e-04  3.3060e-04  2.5932e-04  8.6240e-05  1.9395e-04  1.8905e-05  
   125  1.3046e-04  2.8707e-04  3.3553e-04  2.6170e-04  8.5347e-05  1.9121e-04  1.8828e-05  
  iter  continuity   xvelocity   yvelocity   zvelocity    energy-T         tke         tef  
   126  1.3039e-04  2.8536e-04  3.4221e-04  2.6340e-04  8.5317e-05  1.8942e-04  1.8901e-05  
   127  1.3114e-04  2.8399e-04  3.4817e-04  2.6756e-04  8.8243e-05  1.9691e-04  2.7638e-05  
   128  1.3198e-04  2.8991e-04  3.5515e-04  2.6874e-04  8.6215e-05  1.9511e-04  2.1787e-05  
   129  1.3188e-04  2.8760e-04  3.5934e-04  2.7029e-04  8.6221e-05  1.9500e-04  1.8982e-05  
   130  1.3214e-04  2.8882e-04  3.6706e-04  2.7338e-04  8.7201e-05  2.0743e-04  2.7817e-05  
   131  1.3444e-04  2.9244e-04  3.7095e-04  2.7650e-04  8.8397e-05  2.2705e-04  3.9424e-05  
   132  1.3441e-04  2.9826e-04  3.7471e-04  2.7769e-04  9.6228e-05  2.3342e-04  3.8412e-05  
   133  1.3706e-04  2.9876e-04  3.7913e-04  2.8278e-04  1.1473e-04  3.4116e-04  1.0415e-04  
   134  1.4368e-04  3.5752e-04  3.9145e-04  2.9201e-04  1.1869e-04  3.2436e-04  6.9225e-05  
   135  1.3954e-04  4.0428e-04  4.2564e-04  3.0009e-04  1.0588e-04  3.4433e-04  7.3280e-05  
   136  1.4053e-04  3.8337e-04  4.0419e-04  2.9889e-04  1.2593e-04  3.6019e-04  1.0344e-04  
   137  1.3511e-04  3.9387e-04  4.0396e-04  2.9770e-04  8.8182e-05  3.0335e-04  5.7857e-05  
   138  1.3333e-04  3.3555e-04  3.8836e-04  2.9647e-04  8.7237e-05  2.7663e-04  2.9223e-05  
   139  1.3349e-04  3.0984e-04  3.8030e-04  2.8694e-04  8.5475e-05  2.7423e-04  1.9824e-05  
   140  1.3328e-04  3.0897e-04  3.7600e-04  2.8168e-04  8.5595e-05  2.7827e-04  1.7901e-05  
   141  1.3329e-04  3.0849e-04  3.7567e-04  2.7713e-04  8.4169e-05  2.7664e-04  1.5515e-05  
   142  1.3381e-04  3.0938e-04  3.7045e-04  2.7569e-04  8.4888e-05  2.7186e-04  1.6726e-05  
   143  1.3315e-04  3.0804e-04  3.6676e-04  2.6980e-04  8.5029e-05  2.7197e-04  1.6743e-05  
   144  1.3314e-04  2.9703e-04  3.5607e-04  2.6609e-04  8.5445e-05  2.6547e-04  1.7120e-05  
   145  1.3315e-04  2.9472e-04  3.4914e-04  2.6224e-04  8.4887e-05  2.5759e-04  1.5699e-05  
   146  1.3338e-04  2.8838e-04  3.4172e-04  2.5959e-04  8.4543e-05  2.4556e-04  1.7409e-05  
   147  1.3324e-04  2.8477e-04  3.3599e-04  2.5764e-04  8.4425e-05  2.3323e-04  1.5721e-05  
   148  1.3778e-04  2.8249e-04  3.3186e-04  2.5867e-04  1.0743e-04  3.4599e-04  1.2043e-04  
   149  1.4677e-04  3.6017e-04  3.5480e-04  2.7089e-04  1.2380e-04  3.1246e-04  7.4396e-05  
   150  1.3515e-04  3.6126e-04  3.4228e-04  2.6725e-04  8.3426e-05  2.4292e-04  5.1503e-05  
  iter  continuity   xvelocity   yvelocity   zvelocity    energy-T         tke         tef  
   151  1.3333e-04  2.9595e-04  3.2365e-04  2.6438e-04  8.3081e-05  2.0777e-04  2.6859e-05  
   152  1.3171e-04  2.7906e-04  3.1710e-04  2.6031e-04  8.2565e-05  2.0404e-04  3.9189e-05  
   153  1.3135e-04  2.7627e-04  3.1649e-04  2.5999e-04  8.2235e-05  1.9103e-04  2.6117e-05  
   154  1.3826e-04  2.8363e-04  3.2233e-04  2.6089e-04  1.3635e-04  3.9220e-04  1.7466e-04  
   155  1.5908e-04  4.0455e-04  3.6777e-04  2.7644e-04  9.0039e-05  3.4822e-04  8.7058e-05  
   156  1.4947e-04  3.3920e-04  3.6230e-04  2.7146e-04  1.3853e-04  3.5062e-04  1.3601e-04  
   157  1.4357e-04  3.4402e-04  3.5577e-04  2.6665e-04  1.1584e-04  3.3574e-04  7.1542e-05  
   158  1.4656e-04  3.3228e-04  3.5490e-04  2.6131e-04  8.0255e-05  3.0179e-04  5.0317e-05  
   159  1.4323e-04  2.9619e-04  3.6061e-04  2.6144e-04  1.3366e-04  3.7933e-04  1.5186e-04  
   160  1.3918e-04  3.6217e-04  3.7494e-04  2.6675e-04  8.5359e-05  2.7903e-04  7.3519e-05  
   161  1.3446e-04  3.3326e-04  3.7497e-04  2.6694e-04  8.3146e-05  2.2725e-04  3.9741e-05  
   162  1.3452e-04  3.1193e-04  3.7124e-04  2.6161e-04  8.0236e-05  2.1473e-04  2.7339e-05  
   163  1.3560e-04  3.1336e-04  3.7417e-04  2.5994e-04  8.0371e-05  2.1872e-04  2.8711e-05  
   164  1.3642e-04  3.1213e-04  3.7961e-04  2.5946e-04  8.1397e-05  2.2205e-04  2.5010e-05  
   165  1.3595e-04  3.1473e-04  3.8423e-04  2.5637e-04  7.8804e-05  2.2230e-04  2.2214e-05  
   166  1.3493e-04  3.1625e-04  3.9785e-04  2.5729e-04  7.9120e-05  2.3155e-04  2.1662e-05  
   167  1.3429e-04  3.2671e-04  4.0637e-04  2.5966e-04  8.0037e-05  2.3291e-04  2.4814e-05  
   168  1.3469e-04  3.2645e-04  4.1646e-04  2.6246e-04  7.9107e-05  2.3728e-04  2.2634e-05  
   169  1.3475e-04  3.2859e-04  4.2778e-04  2.6753e-04  7.9387e-05  2.4224e-04  2.5311e-05  
   170  1.3481e-04  3.3679e-04  4.4179e-04  2.7402e-04  7.9209e-05  2.4626e-04  2.2630e-05  
   171  1.3278e-04  3.4134e-04  4.5592e-04  2.7870e-04  8.5151e-05  2.6521e-04  5.3635e-05  
   172  1.3183e-04  3.5852e-04  4.7738e-04  2.8611e-04  7.7942e-05  2.6421e-04  3.3816e-05  
   173  1.3203e-04  3.6526e-04  4.9833e-04  2.9711e-04  7.8118e-05  2.7197e-04  2.5194e-05  
   174  1.3294e-04  3.6867e-04  5.2009e-04  3.0861e-04  7.6471e-05  2.7708e-04  2.3995e-05  
   175  1.3326e-04  3.7488e-04  5.3868e-04  3.1820e-04  7.5753e-05  2.8573e-04  2.4271e-05  
  iter  continuity   xvelocity   yvelocity   zvelocity    energy-T         tke         tef  
   176  1.3392e-04  3.8258e-04  5.5608e-04  3.2480e-04  7.6657e-05  2.9528e-04  2.6636e-05  
   177  1.3536e-04  3.8862e-04  5.6631e-04  3.3134e-04  7.7845e-05  3.0282e-04  3.8395e-05  
   178  1.3713e-04  3.9947e-04  5.7963e-04  3.3854e-04  7.6036e-05  3.0170e-04  3.0026e-05  
   179  1.4119e-04  4.0109e-04  5.9068e-04  3.4493e-04  9.1450e-05  3.8063e-04  1.0941e-04  
   180  1.4789e-04  4.7573e-04  6.2162e-04  3.5802e-04  1.1872e-04  3.7962e-04  8.7758e-05  
   181  1.3784e-04  4.6193e-04  5.9583e-04  3.5327e-04  7.7400e-05  3.5104e-04  6.6017e-05  
   182  1.3580e-04  4.3481e-04  5.7950e-04  3.5465e-04  7.5243e-05  3.3424e-04  3.6573e-05  
   183  1.3626e-04  4.3817e-04  5.6377e-04  3.5766e-04  7.6755e-05  3.3838e-04  2.6054e-05  
   184  1.3683e-04  4.3893e-04  5.4895e-04  3.5836e-04  7.5312e-05  3.4602e-04  2.4245e-05  
   185  1.3793e-04  4.4448e-04  5.3982e-04  3.6134e-04  7.6932e-05  3.6156e-04  2.6192e-05  
   186  1.3768e-04  4.6273e-04  5.3660e-04  3.6680e-04  7.7857e-05  3.7635e-04  2.4608e-05  
   187  1.3734e-04  4.6942e-04  5.2606e-04  3.7049e-04  7.6862e-05  3.9459e-04  2.5459e-05  
   188  1.3657e-04  4.6918e-04  5.1337e-04  3.7138e-04  7.7641e-05  4.1666e-04  2.7129e-05  
   189  1.3663e-04  4.7727e-04  5.0542e-04  3.7464e-04  7.6667e-05  4.2501e-04  2.7670e-05  
   190  1.3687e-04  4.7564e-04  5.0124e-04  3.7601e-04  7.5525e-05  4.3407e-04  2.6304e-05  
   191  1.3596e-04  4.7930e-04  4.9213e-04  3.7466e-04  7.5114e-05  4.2232e-04  3.0898e-05  
   192  1.3579e-04  4.9391e-04  4.9168e-04  3.7703e-04  7.4035e-05  4.1806e-04  2.7520e-05  
   193  1.3631e-04  5.0926e-04  4.8694e-04  3.8149e-04  7.3430e-05  4.3365e-04  2.7087e-05  
   194  1.3703e-04  5.3082e-04  4.8655e-04  3.8832e-04  7.2933e-05  4.4730e-04  2.6661e-05  
   195  1.3757e-04  5.5586e-04  4.8331e-04  3.9482e-04  7.2536e-05  4.4209e-04  2.5796e-05  
   196  1.3839e-04  5.8579e-04  4.8057e-04  4.0289e-04  7.2646e-05  4.3762e-04  2.6328e-05  
   197  1.3918e-04  6.1206e-04  4.7366e-04  4.0950e-04  7.2624e-05  4.2688e-04  2.5492e-05  
   198  1.3977e-04  6.1236e-04  4.6275e-04  4.1003e-04  7.2709e-05  4.1313e-04  2.4950e-05  
   199  1.4050e-04  6.0178e-04  4.5252e-04  4.0929e-04  7.1783e-05  4.2014e-04  2.6257e-05  
   200  1.4101e-04  5.9317e-04  4.4652e-04  4.0765e-04  7.1372e-05  4.4322e-04  2.4112e-05  
  iter  continuity   xvelocity   yvelocity   zvelocity    energy-T         tke         tef  
   201  1.4160e-04  5.8451e-04  4.3562e-04  4.0585e-04  7.1806e-05  4.6885e-04  2.8569e-05  
   202  1.4114e-04  5.6732e-04  4.2557e-04  4.0347e-04  7.4986e-05  4.8220e-04  3.4330e-05  
   203  1.4003e-04  5.5705e-04  4.1307e-04  4.0378e-04  7.1681e-05  4.7778e-04  2.3943e-05  
   204  1.3931e-04  5.4710e-04  4.0100e-04  4.0518e-04  7.1235e-05  4.4899e-04  2.4679e-05  
   205  1.3907e-04  5.3500e-04  3.9008e-04  4.0563e-04  7.0841e-05  4.0147e-04  2.3782e-05  
   206  1.4083e-04  5.2797e-04  3.7946e-04  4.0004e-04  8.0559e-05  3.8849e-04  5.5908e-05  
   207  1.4190e-04  5.2403e-04  3.6886e-04  3.9019e-04  7.9659e-05  3.7701e-04  3.3529e-05  
   208  1.3919e-04  5.0856e-04  3.5701e-04  3.7861e-04  7.0059e-05  3.7879e-04  2.9159e-05  
   209  1.4154e-04  5.0829e-04  3.5139e-04  3.7385e-04  8.7589e-05  4.2089e-04  7.7315e-05  
   210  1.4394e-04  5.1667e-04  3.5053e-04  3.7482e-04  9.0099e-05  4.0470e-04  4.9121e-05  
   211  1.3922e-04  5.1401e-04  3.5002e-04  3.7488e-04  7.0665e-05  3.8598e-04  2.6615e-05  
   212  1.3774e-04  5.0689e-04  3.4452e-04  3.7618e-04  6.9511e-05  3.8173e-04  2.3257e-05  
   213  1.3745e-04  4.9733e-04  3.4398e-04  3.7630e-04  6.9830e-05  3.8465e-04  1.9814e-05  
   214  1.4034e-04  4.8679e-04  3.4768e-04  3.7610e-04  8.8883e-05  4.4802e-04  9.0017e-05  
   215  1.4746e-04  4.9834e-04  3.5229e-04  3.7510e-04  7.2563e-05  4.5709e-04  5.4054e-05  
   216  1.4679e-04  4.9410e-04  3.7104e-04  3.7509e-04  7.0120e-05  4.9848e-04  3.4731e-05  
   217  1.4329e-04  4.8052e-04  3.6064e-04  3.6291e-04  8.4830e-05  5.5474e-04  6.1444e-05  
   218  1.4259e-04  4.8567e-04  3.7757e-04  3.5347e-04  8.7370e-05  5.9586e-04  5.6700e-05  
   219  1.4543e-04  4.9041e-04  3.7766e-04  3.4648e-04  7.2539e-05  5.7848e-04  2.5684e-05  
   220  1.4146e-04  5.0356e-04  4.0239e-04  3.4459e-04  8.9718e-05  5.2667e-04  9.7787e-05  
   221  1.4030e-04  5.1768e-04  3.9502e-04  3.3503e-04  7.1956e-05  4.2310e-04  4.3802e-05  
   222  1.3693e-04  5.0211e-04  3.9632e-04  3.2657e-04  6.8322e-05  4.1264e-04  5.3719e-05  
   223  1.4219e-04  4.9916e-04  3.9462e-04  3.2419e-04  1.0115e-04  4.3690e-04  8.5960e-05  
   224  1.4366e-04  5.1383e-04  3.9416e-04  3.2056e-04  8.5687e-05  4.8588e-04  4.2704e-05  
   225  1.3891e-04  4.7716e-04  3.8031e-04  3.1124e-04  6.8749e-05  5.3830e-04  5.4141e-05  
  iter  continuity   xvelocity   yvelocity   zvelocity    energy-T         tke         tef  
   226  1.3761e-04  4.6567e-04  3.9598e-04  3.0741e-04  6.7502e-05  5.7892e-04  2.8931e-05  
   227  1.4200e-04  4.3692e-04  3.8168e-04  2.9985e-04  9.8176e-05  5.8978e-04  9.8208e-05  
   228  1.4515e-04  4.5686e-04  3.8022e-04  2.9702e-04  9.1310e-05  5.6353e-04  4.3264e-05  
   229  1.3769e-04  4.3160e-04  3.7576e-04  2.8962e-04  6.6950e-05  5.2171e-04  4.5508e-05  
   230  1.3672e-04  4.0619e-04  3.7212e-04  2.8381e-04  6.6869e-05  4.7531e-04  1.9628e-05  
   231  1.3612e-04  3.9784e-04  3.7275e-04  2.7942e-04  6.4522e-05  4.3314e-04  1.9678e-05  
   232  1.3588e-04  3.8563e-04  3.6924e-04  2.7438e-04  6.4170e-05  3.8686e-04  1.6037e-05  
   233  1.3575e-04  3.7787e-04  3.6776e-04  2.6944e-04  6.3855e-05  3.4578e-04  1.4467e-05  
   234  1.3574e-04  3.7052e-04  3.6483e-04  2.6497e-04  6.3858e-05  3.1633e-04  1.4469e-05  
   235  1.3594e-04  3.6603e-04  3.5947e-04  2.6117e-04  6.3722e-05  2.9672e-04  1.8767e-05  
   236  1.3682e-04  3.6485e-04  3.5917e-04  2.5775e-04  6.3504e-05  2.7789e-04  2.1514e-05  
   237  1.3889e-04  3.6048e-04  3.5240e-04  2.5717e-04  7.0825e-05  2.8182e-04  6.4897e-05  
   238  1.4076e-04  3.7416e-04  3.4599e-04  2.5921e-04  7.7858e-05  2.6790e-04  3.8332e-05  
   239  1.3568e-04  3.6785e-04  3.3951e-04  2.5692e-04  6.4837e-05  2.6279e-04  3.5999e-05  
   240  1.3442e-04  3.9576e-04  3.7065e-04  2.6496e-04  6.7709e-05  2.6045e-04  2.0684e-05  
   241  1.3463e-04  3.6637e-04  3.4711e-04  2.5916e-04  6.4463e-05  2.7258e-04  2.1368e-05  
   242  1.3284e-04  3.5801e-04  3.4266e-04  2.6050e-04  6.4004e-05  2.8284e-04  2.4236e-05  
   243  1.3975e-04  3.5384e-04  3.4094e-04  2.6351e-04  1.2837e-04  4.6436e-04  1.7378e-04  
   244  1.5424e-04  4.8543e-04  3.8421e-04  2.8441e-04  1.4075e-04  4.1784e-04  9.8700e-05  
   245  1.3774e-04  5.1992e-04  3.9106e-04  2.9276e-04  6.4338e-05  3.5612e-04  4.6815e-05  
   246  1.3658e-04  4.4734e-04  3.9169e-04  2.9238e-04  6.2403e-05  3.2112e-04  2.9317e-05  
   247  1.3594e-04  3.7008e-04  3.3203e-04  2.7982e-04  6.3252e-05  3.3134e-04  2.0961e-05  
   248  1.3973e-04  3.6633e-04  3.2512e-04  2.8229e-04  8.2183e-05  3.7751e-04  8.4494e-05  
   249  1.4412e-04  4.0077e-04  3.3355e-04  2.9066e-04  9.3629e-05  3.4449e-04  5.2977e-05  
   250  1.3634e-04  3.9260e-04  3.2341e-04  2.8794e-04  6.4318e-05  3.6195e-04  5.9932e-05  
  iter  continuity   xvelocity   yvelocity   zvelocity    energy-T         tke         tef  
   251  1.3773e-04  3.8177e-04  3.3263e-04  2.9398e-04  7.5662e-05  3.9763e-04  3.3874e-05  
   252  1.4179e-04  3.9852e-04  3.4216e-04  2.9590e-04  8.5008e-05  5.0266e-04  1.1009e-04  
   253  1.4780e-04  4.2654e-04  3.4883e-04  3.0520e-04  1.0280e-04  5.4353e-04  6.7375e-05  
   254  1.3806e-04  4.2108e-04  3.4133e-04  3.0535e-04  6.2549e-05  5.4900e-04  4.7145e-05  
   255  1.4142e-04  3.9922e-04  3.5899e-04  3.1246e-04  9.8935e-05  6.1203e-04  1.0338e-04  
   256  1.5147e-04  4.2541e-04  3.7442e-04  3.1910e-04  6.2122e-05  6.2889e-04  6.4407e-05  
   257  1.5219e-04  4.1320e-04  3.7756e-04  3.2466e-04  6.3994e-05  6.3254e-04  3.8473e-05  
   258  1.4445e-04  4.0926e-04  3.8711e-04  3.2631e-04  1.1835e-04  6.6918e-04  1.4524e-04  
   259  1.4309e-04  4.5920e-04  4.1769e-04  3.3551e-04  7.2606e-05  6.0723e-04  6.7657e-05  
   260  1.3991e-04  4.3992e-04  4.3886e-04  3.4054e-04  7.1520e-05  5.6127e-04  4.0727e-05  
   261  1.3916e-04  4.2144e-04  4.4483e-04  3.3700e-04  6.3125e-05  5.5051e-04  3.6806e-05  
   262  1.3910e-04  4.2055e-04  4.6300e-04  3.4413e-04  6.1438e-05  4.4195e-04  3.2658e-05  
   263  1.4037e-04  4.2781e-04  4.8214e-04  3.5284e-04  6.2780e-05  3.8348e-04  3.0343e-05  
   264  1.4092e-04  4.3316e-04  4.9496e-04  3.5820e-04  6.0648e-05  3.5552e-04  3.0481e-05  
   265  1.4015e-04  4.3691e-04  5.0449e-04  3.6467e-04  6.0711e-05  3.4311e-04  2.9943e-05  
   266  1.3924e-04  4.4223e-04  5.1726e-04  3.7440e-04  6.0910e-05  3.3904e-04  3.2048e-05  
   267  1.3923e-04  4.5010e-04  5.3087e-04  3.8343e-04  6.1143e-05  3.3081e-04  3.3474e-05  
   268  1.3925e-04  4.5356e-04  5.4521e-04  3.8667e-04  6.0376e-05  3.2492e-04  3.1781e-05  
   269  1.3915e-04  4.5504e-04  5.5810e-04  3.8926e-04  6.0357e-05  3.2174e-04  3.1476e-05  
   270  1.3909e-04  4.6138e-04  5.6556e-04  3.9415e-04  6.0229e-05  3.2085e-04  3.1467e-05  
   271  1.3936e-04  4.6983e-04  5.7642e-04  4.0272e-04  6.0067e-05  3.2448e-04  3.1904e-05  
   272  1.3943e-04  4.8179e-04  5.8865e-04  4.1097e-04  5.9847e-05  3.3436e-04  3.3182e-05  
   273  1.4002e-04  4.9353e-04  6.0145e-04  4.1847e-04  6.0410e-05  3.4278e-04  3.4362e-05  
   274  1.4022e-04  5.0104e-04  6.0836e-04  4.1914e-04  5.9095e-05  3.5049e-04  3.1827e-05  
   275  1.3943e-04  5.0012e-04  6.0570e-04  4.1770e-04  6.1216e-05  3.6725e-04  3.6057e-05  
  iter  continuity   xvelocity   yvelocity   zvelocity    energy-T         tke         tef  
   276  1.3824e-04  5.0483e-04  6.1839e-04  4.1779e-04  5.9330e-05  3.9425e-04  3.7170e-05  
   277  1.4187e-04  5.0822e-04  6.3102e-04  4.2101e-04  8.3395e-05  4.4204e-04  8.0979e-05  
   278  1.4630e-04  5.2470e-04  6.4334e-04  4.2103e-04  6.5505e-05  4.4373e-04  4.1924e-05  
   279  1.4473e-04  5.2331e-04  6.5587e-04  4.2229e-04  6.0101e-05  4.6470e-04  3.1886e-05  
   280  1.4176e-04  5.1035e-04  6.4679e-04  4.2360e-04  7.1697e-05  5.4372e-04  6.7317e-05  
   281  1.4178e-04  5.1713e-04  6.3896e-04  4.3282e-04  6.8356e-05  6.0080e-04  3.4641e-05  
   282  1.4691e-04  5.2867e-04  6.3362e-04  4.3717e-04  9.5096e-05  6.7553e-04  1.2292e-04  
   283  1.5699e-04  5.5694e-04  6.3227e-04  4.3981e-04  1.0012e-04  6.2465e-04  5.8748e-05  
   284  1.4518e-04  5.5239e-04  6.3066e-04  4.3941e-04  7.1658e-05  5.7762e-04  8.7943e-05  
   285  1.4437e-04  5.3283e-04  6.2505e-04  4.5148e-04  6.1289e-05  5.1274e-04  4.9058e-05  
   286  1.4284e-04  5.3587e-04  6.2021e-04  4.5579e-04  6.1748e-05  4.6497e-04  3.5083e-05  
   287  1.4433e-04  5.2997e-04  6.1348e-04  4.5730e-04  6.1666e-05  4.3106e-04  3.9902e-05  
   288  1.4574e-04  5.2516e-04  6.1287e-04  4.5835e-04  5.9251e-05  4.1647e-04  3.6040e-05  
   289  1.4451e-04  5.1505e-04  6.0969e-04  4.5619e-04  6.3020e-05  4.1141e-04  4.1344e-05  
   290  1.4250e-04  5.2403e-04  6.1606e-04  4.5360e-04  5.7940e-05  4.1020e-04  4.3467e-05  
   291  1.4353e-04  5.2080e-04  6.1861e-04  4.4938e-04  6.0774e-05  4.1127e-04  3.7540e-05  
   292  1.4518e-04  5.3122e-04  6.2773e-04  4.4343e-04  6.1727e-05  4.1968e-04  4.9793e-05  
   293  1.4708e-04  5.4790e-04  6.3964e-04  4.3982e-04  5.8799e-05  4.2039e-04  4.2885e-05  
   294  1.4821e-04  5.4572e-04  6.4811e-04  4.3836e-04  5.8993e-05  4.2693e-04  4.1525e-05  
   295  1.4814e-04  5.4770e-04  6.5589e-04  4.4045e-04  6.2160e-05  4.3085e-04  4.2527e-05  
   296  1.5235e-04  5.5431e-04  6.6359e-04  4.4254e-04  8.7253e-05  4.9596e-04  1.0103e-04  
   297  1.5877e-04  5.7449e-04  6.7971e-04  4.4030e-04  8.0763e-05  4.7699e-04  5.5597e-05  
   298  1.5196e-04  5.4646e-04  6.7617e-04  4.3274e-04  6.5773e-05  4.6900e-04  7.1328e-05  
   299  1.5462e-04  5.2778e-04  6.8235e-04  4.2820e-04  8.7307e-05  5.0247e-04  8.5468e-05  
   300  1.5821e-04  5.4956e-04  6.8828e-04  4.2589e-04  7.5355e-05  5.4467e-04  5.3979e-05  
  iter  continuity   xvelocity   yvelocity   zvelocity    energy-T         tke         tef  
   301  1.6008e-04  7.7760e-04  8.4683e-04  4.8319e-04  5.5394e-05  5.1057e-04  4.5739e-05  
   302  1.5984e-04  6.4435e-04  7.4125e-04  4.4967e-04  5.8284e-05  5.2488e-04  6.0072e-05  
   303  1.6374e-04  6.5313e-04  7.1940e-04  4.3559e-04  6.7691e-05  5.1801e-04  4.6408e-05  
   304  1.6420e-04  6.3965e-04  6.9527e-04  4.1255e-04  5.5893e-05  5.1944e-04  3.7641e-05  
   305  1.6402e-04  6.1256e-04  6.7796e-04  3.9750e-04  5.3597e-05  5.0693e-04  3.2683e-05  
   306  1.6148e-04  5.6931e-04  6.5581e-04  3.8299e-04  5.2961e-05  5.0268e-04  3.1403e-05  
   307  1.5857e-04  5.3468e-04  6.3549e-04  3.7563e-04  5.4814e-05  5.1067e-04  3.2719e-05  
   308  1.5326e-04  7.0541e-04  7.7019e-04  4.2202e-04  5.7948e-05  4.8802e-04  5.5749e-05  
   309  1.5337e-04  5.3534e-04  6.5396e-04  3.8616e-04  7.1501e-05  4.7652e-04  5.1187e-05  
   310  1.5107e-04  5.6639e-04  6.3625e-04  3.9368e-04  5.8359e-05  4.6537e-04  3.1117e-05  
   311  1.5498e-04  5.4274e-04  6.1062e-04  3.8224e-04  9.3934e-05  5.1713e-04  1.2821e-04  
   312  1.5960e-04  5.5895e-04  5.9872e-04  3.6932e-04  1.0346e-04  4.9193e-04  6.8938e-05  
   313  1.4758e-04  5.7153e-04  5.8622e-04  3.6747e-04  6.1380e-05  4.3559e-04  8.4736e-05  
   314  1.4637e-04  5.0716e-04  5.6615e-04  3.5375e-04  5.5570e-05  4.0389e-04  4.2935e-05  
   315  1.4960e-04  4.9085e-04  5.5039e-04  3.5227e-04  1.0701e-04  4.7492e-04  1.2915e-04  
   316  1.5494e-04  5.1704e-04  5.5013e-04  3.4912e-04  1.0390e-04  4.7897e-04  7.0470e-05  
   317  1.4934e-04  6.2999e-04  6.5519e-04  3.8610e-04  5.1143e-05  4.1067e-04  5.2922e-05  
   318  1.4940e-04  5.2577e-04  5.9805e-04  3.8141e-04  5.0585e-05  4.0920e-04  3.2264e-05  
   319  1.5236e-04  5.0384e-04  5.8249e-04  3.7028e-04  5.8706e-05  3.9872e-04  3.9776e-05  
   320  1.5349e-04  4.6542e-04  5.5880e-04  3.4512e-04  4.9349e-05  3.9554e-04  2.4137e-05  
   321  1.5328e-04  4.6902e-04  5.6869e-04  3.3859e-04  4.9013e-05  3.7874e-04  2.4980e-05  
   322  1.5166e-04  4.4125e-04  5.6325e-04  3.2662e-04  5.1006e-05  3.7343e-04  2.7270e-05  
   323  1.5160e-04  4.4445e-04  5.6616e-04  3.2585e-04  4.9720e-05  3.5946e-04  2.4581e-05  
   324  1.5105e-04  4.3093e-04  5.7011e-04  3.2376e-04  4.9626e-05  3.5783e-04  3.1215e-05  
   325  1.4827e-04  4.2694e-04  5.8004e-04  3.2724e-04  5.2933e-05  4.1284e-04  4.6653e-05  
  iter  continuity   xvelocity   yvelocity   zvelocity    energy-T         tke         tef  
   326  1.4724e-04  7.8637e-04  8.1561e-04  4.3963e-04  5.4876e-05  3.5581e-04  3.6193e-05  
   327  1.4747e-04  5.0002e-04  6.7804e-04  3.7897e-04  5.1604e-05  3.5633e-04  4.1542e-05  
   328  1.4804e-04  5.0592e-04  6.7172e-04  3.8549e-04  5.1061e-05  3.5330e-04  3.7877e-05  
   329  1.4805e-04  4.7007e-04  6.8757e-04  3.8956e-04  5.1042e-05  3.4823e-04  3.7133e-05  
   330  1.4831e-04  4.6022e-04  7.1366e-04  3.9391e-04  4.9893e-05  3.6107e-04  3.8742e-05  
   331  1.5039e-04  5.9922e-04  8.2398e-04  4.1533e-04  4.8072e-05  3.4437e-04  4.0586e-05  
   332  1.4824e-04  4.5197e-04  7.9668e-04  4.0454e-04  4.8164e-05  3.4409e-04  4.5851e-05  
   333  1.5149e-04  4.5760e-04  8.0490e-04  4.1474e-04  5.9701e-05  3.6500e-04  6.1238e-05  
   334  1.5671e-04  4.7576e-04  8.2432e-04  4.2459e-04  4.8858e-05  3.7718e-04  4.7813e-05  
   335  1.5914e-04  4.7037e-04  8.2412e-04  4.2864e-04  4.7337e-05  3.7240e-04  4.6037e-05  
   336  1.6615e-04  4.6885e-04  8.2706e-04  4.2629e-04  7.8728e-05  4.7326e-04  1.2022e-04  
   337  1.7490e-04  5.5622e-04  8.5074e-04  4.4514e-04  1.1627e-04  4.6898e-04  1.0458e-04  
   338  1.6398e-04  5.4854e-04  8.1388e-04  4.1412e-04  4.7939e-05  3.8442e-04  6.9362e-05  
   339  1.6243e-04  4.9647e-04  7.8526e-04  4.0264e-04  5.0543e-05  3.4093e-04  4.4799e-05  
   340  1.6313e-04  4.8281e-04  7.7229e-04  3.9040e-04  4.6602e-05  3.2438e-04  3.7222e-05  
   341  1.6388e-04  4.9807e-04  7.6220e-04  3.8986e-04  4.5308e-05  3.1806e-04  3.3240e-05  
   342  1.6504e-04  5.0830e-04  7.4505e-04  3.8520e-04  4.7093e-05  3.1851e-04  3.5685e-05  
   343  1.6500e-04  5.2116e-04  7.1808e-04  3.8103e-04  4.6028e-05  3.2112e-04  3.1310e-05  
   344  1.6421e-04  5.2547e-04  6.8084e-04  3.7952e-04  4.5761e-05  3.2545e-04  2.8741e-05  
   345  1.6293e-04  5.3338e-04  6.4976e-04  3.7862e-04  4.5177e-05  3.3051e-04  2.7666e-05  
   346  1.6217e-04  5.3182e-04  6.1439e-04  3.7398e-04  4.4792e-05  3.4454e-04  2.5803e-05  
   347  1.6429e-04  5.3534e-04  5.9444e-04  3.6889e-04  5.8865e-05  3.7102e-04  6.1829e-05  
   348  1.6343e-04  5.4862e-04  5.7618e-04  3.6735e-04  7.3421e-05  3.9577e-04  5.5519e-05  
   349  1.5878e-04  5.5606e-04  5.6561e-04  3.6413e-04  4.5769e-05  3.9168e-04  3.4865e-05  
   350  1.5586e-04  5.4214e-04  5.3809e-04  3.5936e-04  4.7578e-05  4.5856e-04  3.4343e-05  
  iter  continuity   xvelocity   yvelocity   zvelocity    energy-T         tke         tef  
   351  1.5679e-04  8.5906e-04  7.5096e-04  4.3408e-04  5.8139e-05  4.2972e-04  4.3916e-05  
   352  1.5763e-04  6.2613e-04  5.5997e-04  3.8946e-04  4.9314e-05  4.3548e-04  2.9571e-05  
   353  1.5583e-04  6.6887e-04  5.9571e-04  3.9519e-04  4.8998e-05  4.2947e-04  2.6953e-05  
   354  1.5520e-04  5.8883e-04  5.0648e-04  3.7059e-04  4.7672e-05  4.1205e-04  3.1957e-05  
   355  1.5534e-04  5.6639e-04  4.8690e-04  3.5674e-04  5.2460e-05  4.4934e-04  3.1251e-05  
   356  1.5804e-04  8.3290e-04  7.5846e-04  4.3777e-04  5.7730e-05  5.5055e-04  5.0210e-05  
   357  1.5909e-04  1.1693e-03  8.6265e-04  4.6978e-04  4.8860e-05  4.9417e-04  6.9810e-05  
   358  1.5930e-04  8.9297e-04  5.8767e-04  4.3043e-04  7.6917e-05  4.5118e-04  6.3172e-05  
   359  1.4686e-04  8.6198e-04  5.5506e-04  3.9650e-04  5.2441e-05  4.1686e-04  6.7205e-05  
   360  1.4722e-04  6.3848e-04  4.4448e-04  3.5651e-04  4.7136e-05  4.3134e-04  4.3013e-05  
   361  1.5132e-04  6.9822e-04  6.4141e-04  3.8589e-04  6.6435e-05  4.2383e-04  5.1659e-05  
   362  1.4783e-04  8.1805e-04  5.4960e-04  3.6557e-04  6.2452e-05  3.8391e-04  4.0555e-05  
   363  1.4295e-04  5.2882e-04  3.6909e-04  3.4965e-04  4.8435e-05  3.8932e-04  4.4992e-05  
   364  1.4209e-04  5.8984e-04  4.8030e-04  3.4530e-04  4.6839e-05  4.6555e-04  3.1100e-05  
   365  1.4563e-04  8.3003e-04  7.0154e-04  4.1030e-04  4.5819e-05  6.2550e-04  5.5197e-05  
   366  1.5229e-04  1.3733e-03  1.1012e-03  5.2626e-04  5.9891e-05  5.4517e-04  6.6751e-05  
   367  1.4696e-04  9.6607e-04  5.9100e-04  4.3914e-04  5.0292e-05  5.2673e-04  4.0767e-05  
   368  1.4199e-04  1.1806e-03  7.7510e-04  4.7670e-04  4.6248e-05  5.0881e-04  3.4699e-05  
   369  1.4336e-04  9.4117e-04  6.0883e-04  4.1450e-04  4.4582e-05  4.3625e-04  2.3836e-05  
   370  1.3556e-04  8.1759e-04  4.9491e-04  3.8002e-04  4.5655e-05  4.1545e-04  2.1192e-05  
   371  1.3697e-04  6.1291e-04  4.7675e-04  3.4262e-04  4.3987e-05  3.8793e-04  1.7273e-05  
   372  1.3760e-04  4.8188e-04  5.0188e-04  3.2675e-04  5.2930e-05  3.5871e-04  3.9745e-05  
   373  1.4095e-04  4.3591e-04  3.6880e-04  3.1584e-04  5.0912e-05  3.5091e-04  6.6628e-05  
   374  1.4375e-04  4.1974e-04  3.4173e-04  3.1104e-04  6.4461e-05  3.7872e-04  3.2029e-05  
   375  1.4278e-04  6.4152e-04  5.7446e-04  3.6781e-04  4.7250e-05  3.3662e-04  4.1996e-05  
  iter  continuity   xvelocity   yvelocity   zvelocity    energy-T         tke         tef  
   376  1.4341e-04  5.3169e-04  4.4771e-04  3.3960e-04  5.2899e-05  3.3368e-04  3.2788e-05  
   377  1.4510e-04  5.3195e-04  4.4739e-04  3.2289e-04  4.7267e-05  3.2514e-04  2.3101e-05  
   378  1.4395e-04  4.9455e-04  4.1586e-04  3.0791e-04  4.3241e-05  3.1417e-04  1.7692e-05  
   379  1.4169e-04  4.6465e-04  4.0397e-04  3.0133e-04  4.5692e-05  3.1960e-04  3.4828e-05  
   380  1.4186e-04  4.4790e-04  3.8957e-04  2.9720e-04  4.6995e-05  3.0986e-04  1.9126e-05  
   381  1.4246e-04  4.5346e-04  3.8421e-04  2.9701e-04  4.2360e-05  2.8506e-04  1.6134e-05  
   382  1.4127e-04  4.1480e-04  3.7259e-04  2.9341e-04  4.5581e-05  3.3398e-04  2.3973e-05  
   383  1.4237e-04  6.6356e-04  6.3343e-04  3.6761e-04  6.5875e-05  3.2771e-04  8.9035e-05  
   384  1.4584e-04  4.6442e-04  4.4864e-04  3.1775e-04  8.0645e-05  3.1390e-04  5.7607e-05  
   385  1.3960e-04  4.5134e-04  4.3604e-04  3.1362e-04  5.7173e-05  2.8301e-04  3.3223e-05  
   386  1.4016e-04  4.0367e-04  3.6878e-04  3.0162e-04  4.6499e-05  2.6077e-04  2.3275e-05  
   387  1.3825e-04  3.6289e-04  3.5850e-04  2.8901e-04  5.8331e-05  2.8238e-04  5.9293e-05  
   388  1.3498e-04  3.4917e-04  3.6902e-04  2.8576e-04  4.4412e-05  2.7383e-04  3.6362e-05  
   389  1.3464e-04  3.4260e-04  3.7430e-04  2.8590e-04  5.2199e-05  2.6704e-04  2.7713e-05  
   390  1.3646e-04  3.4204e-04  3.8116e-04  2.8235e-04  4.5795e-05  2.6331e-04  3.4905e-05  
   391  1.3813e-04  3.3253e-04  3.8900e-04  2.8061e-04  4.5122e-05  2.6418e-04  2.4823e-05  
   392  1.3603e-04  3.2686e-04  3.9399e-04  2.7965e-04  5.5070e-05  2.8318e-04  4.0506e-05  
   393  1.3415e-04  3.3048e-04  4.0390e-04  2.8145e-04  4.5130e-05  2.8048e-04  2.6793e-05  
   394  1.3442e-04  3.3569e-04  4.1665e-04  2.8433e-04  4.8107e-05  2.8491e-04  2.3722e-05  
   395  1.3513e-04  3.4561e-04  4.2705e-04  2.8441e-04  4.5133e-05  2.9024e-04  2.1351e-05  
   396  1.3486e-04  3.4208e-04  4.3912e-04  2.8308e-04  4.5177e-05  2.9718e-04  2.1380e-05  
   397  1.3460e-04  3.4454e-04  4.4947e-04  2.8472e-04  4.5310e-05  3.0379e-04  2.2240e-05  
   398  1.3458e-04  3.4769e-04  4.6195e-04  2.8715e-04  4.4634e-05  3.0954e-04  2.2425e-05  
   399  1.3492e-04  3.5213e-04  4.7689e-04  2.9188e-04  4.4645e-05  3.1541e-04  2.2055e-05  
   400  1.3457e-04  3.5621e-04  4.8740e-04  2.9673e-04  4.6025e-05  3.2421e-04  2.4546e-05  
  iter  continuity   xvelocity   yvelocity   zvelocity    energy-T         tke         tef  
   401  1.3464e-04  3.6703e-04  5.0107e-04  3.0339e-04  4.5434e-05  3.2809e-04  2.4029e-05  
   402  1.3478e-04  3.7586e-04  5.1675e-04  3.1040e-04  4.5594e-05  3.3517e-04  2.4291e-05  
   403  1.3627e-04  3.8267e-04  5.2710e-04  3.1924e-04  5.4784e-05  3.4478e-04  5.0035e-05  
   404  1.3899e-04  3.9643e-04  5.3622e-04  3.2766e-04  4.5961e-05  3.4496e-04  3.1914e-05  
   405  1.3787e-04  4.0069e-04  5.4912e-04  3.3518e-04  5.1513e-05  3.5029e-04  4.2368e-05  
   406  1.3555e-04  4.2054e-04  5.6407e-04  3.4698e-04  4.3821e-05  3.4670e-04  3.9501e-05  
   407  1.3538e-04  4.2912e-04  5.7101e-04  3.5911e-04  4.3320e-05  3.5792e-04  3.2351e-05  
   408  1.3640e-04  4.4037e-04  5.7724e-04  3.7050e-04  4.4189e-05  3.7128e-04  2.8983e-05  
   409  1.3803e-04  4.4931e-04  5.8372e-04  3.8162e-04  4.3529e-05  3.8977e-04  3.3738e-05  
   410  1.3950e-04  4.6482e-04  5.9606e-04  3.9428e-04  4.2704e-05  4.0990e-04  3.3408e-05  
   411  1.3965e-04  4.7219e-04  6.0901e-04  4.0896e-04  4.4277e-05  4.3771e-04  3.5168e-05  
   412  1.3947e-04  4.8900e-04  6.2507e-04  4.2457e-04  4.1609e-05  4.6545e-04  3.4476e-05  
   413  1.3914e-04  5.0265e-04  6.4877e-04  4.4121e-04  4.2099e-05  4.9145e-04  4.0887e-05  
   414  1.3952e-04  5.2632e-04  6.8392e-04  4.6118e-04  4.4274e-05  4.8067e-04  3.5838e-05  
   415  1.4105e-04  5.3929e-04  7.2333e-04  4.7611e-04  4.1403e-05  4.9188e-04  3.6202e-05  
   416  1.4401e-04  5.6687e-04  7.7456e-04  4.9054e-04  4.4693e-05  5.1666e-04  4.7736e-05  
   417  1.4392e-04  5.6660e-04  8.0493e-04  5.0396e-04  5.6503e-05  5.4255e-04  5.4085e-05  
   418  1.4345e-04  5.7307e-04  8.1860e-04  5.1089e-04  4.2626e-05  5.6341e-04  3.7459e-05  
   419  1.4432e-04  5.9064e-04  8.2835e-04  5.1316e-04  4.1248e-05  5.7253e-04  3.7142e-05  
   420  1.4539e-04  6.0805e-04  8.2445e-04  5.1717e-04  4.0755e-05  5.7731e-04  3.7199e-05  
   421  1.4775e-04  6.2890e-04  8.2578e-04  5.1822e-04  4.4961e-05  5.9190e-04  4.5717e-05  
   422  1.4932e-04  6.4037e-04  8.0756e-04  5.1871e-04  4.3468e-05  5.9367e-04  3.7091e-05  
   423  1.4925e-04  6.4623e-04  7.7617e-04  5.1652e-04  4.0834e-05  5.9129e-04  3.6487e-05  
   424  1.4891e-04  6.4738e-04  7.4554e-04  5.1708e-04  4.0589e-05  5.8172e-04  3.8142e-05  
   425  1.4974e-04  6.6018e-04  7.3053e-04  5.2425e-04  4.2369e-05  5.4723e-04  3.7469e-05  
  iter  continuity   xvelocity   yvelocity   zvelocity    energy-T         tke         tef  
   426  1.5044e-04  6.7913e-04  7.1940e-04  5.3359e-04  4.1250e-05  5.4554e-04  3.4655e-05  
   427  1.5130e-04  7.1083e-04  7.0953e-04  5.3826e-04  4.0898e-05  6.1155e-04  3.3798e-05  
   428  1.5224e-04  7.5135e-04  6.9558e-04  5.4831e-04  4.1246e-05  7.2011e-04  3.5556e-05  
   429  1.5183e-04  7.9324e-04  6.7751e-04  5.5759e-04  4.8009e-05  8.3051e-04  4.0376e-05  
   430  1.5051e-04  8.8089e-04  6.5649e-04  5.7020e-04  4.3722e-05  9.2350e-04  3.3369e-05  
   431  1.5117e-04  8.9758e-04  6.3423e-04  5.7380e-04  4.1989e-05  9.7902e-04  3.3772e-05  
   432  1.5141e-04  9.1388e-04  5.9358e-04  5.8029e-04  4.3975e-05  1.0244e-03  3.5250e-05  
   433  1.5140e-04  9.2593e-04  5.6205e-04  5.8013e-04  4.1666e-05  1.0863e-03  3.2958e-05  
   434  1.5228e-04  9.5661e-04  5.3514e-04  5.8949e-04  4.1522e-05  1.1077e-03  3.1493e-05  
   435  1.5365e-04  9.8601e-04  5.1321e-04  5.9516e-04  4.6077e-05  1.1086e-03  3.7712e-05  
   436  1.5300e-04  1.0142e-03  4.9660e-04  5.9661e-04  4.2729e-05  1.0116e-03  3.0561e-05  
   437  1.5180e-04  9.9720e-04  4.7732e-04  5.9448e-04  4.1651e-05  8.8251e-04  2.9076e-05  
   438  1.5102e-04  9.6836e-04  4.5941e-04  5.9049e-04  4.1721e-05  7.9907e-04  2.8100e-05  
   439  1.5044e-04  9.6448e-04  4.4690e-04  5.9211e-04  4.1429e-05  7.4381e-04  2.9675e-05  
   440  1.4953e-04  9.4789e-04  4.3749e-04  5.8887e-04  4.1273e-05  6.5744e-04  2.9737e-05  
   441  1.4908e-04  9.1936e-04  4.3264e-04  5.7833e-04  4.0956e-05  5.5654e-04  2.8691e-05  
   442  1.4914e-04  8.5187e-04  4.2923e-04  5.6684e-04  4.1047e-05  4.7826e-04  2.8734e-05  
   443  1.4797e-04  7.7757e-04  4.2728e-04  5.6149e-04  4.5240e-05  4.2238e-04  3.8582e-05  
   444  1.4977e-04  7.4110e-04  4.4053e-04  5.6435e-04  5.3159e-05  4.0242e-04  4.7770e-05  
   445  1.5120e-04  7.1537e-04  4.5418e-04  5.6585e-04  4.0601e-05  3.9436e-04  3.0119e-05  
   446  1.4857e-04  6.9043e-04  4.5777e-04  5.6277e-04  4.3308e-05  3.9253e-04  3.6482e-05  
   447  1.4771e-04  6.8173e-04  4.6749e-04  5.5346e-04  4.7832e-05  3.9902e-04  4.0440e-05  
   448  1.4704e-04  6.8163e-04  4.8013e-04  5.4550e-04  4.1996e-05  4.0297e-04  2.7149e-05  
   449  1.4455e-04  6.5287e-04  4.9045e-04  5.4141e-04  3.9844e-05  3.9442e-04  2.9003e-05  
   450  1.4278e-04  6.2310e-04  4.9775e-04  5.3145e-04  3.8865e-05  3.9377e-04  3.1176e-05  
  iter  continuity   xvelocity   yvelocity   zvelocity    energy-T         tke         tef  
   451  1.4222e-04  5.9812e-04  5.0672e-04  5.1682e-04  3.8497e-05  3.8664e-04  2.6975e-05  
   452  1.4534e-04  5.8606e-04  5.1586e-04  5.0461e-04  5.7165e-05  4.1288e-04  6.4585e-05  
   453  1.5122e-04  5.8956e-04  5.2520e-04  4.9341e-04  3.8718e-05  4.2110e-04  6.1090e-05  
   454  1.5013e-04  5.8002e-04  5.2881e-04  4.9765e-04  7.6654e-05  4.2068e-04  7.0270e-05  
   455  1.4547e-04  5.7377e-04  5.2995e-04  5.0029e-04  3.8965e-05  4.0187e-04  3.9013e-05  
   456  1.4456e-04  5.5505e-04  5.3091e-04  4.9999e-04  3.7654e-05  4.0939e-04  3.0509e-05  
   457  1.4413e-04  5.4777e-04  5.3103e-04  4.9332e-04  3.7633e-05  4.3397e-04  3.7238e-05  
   458  1.4640e-04  5.6810e-04  5.4766e-04  4.9161e-04  3.8996e-05  4.3656e-04  2.6607e-05  
   459  1.4834e-04  5.5755e-04  5.4580e-04  4.8879e-04  3.7078e-05  4.6385e-04  2.3590e-05  
   460  1.5063e-04  5.6842e-04  5.4445e-04  4.9079e-04  3.7805e-05  5.0660e-04  2.8452e-05  
   461  1.5127e-04  5.7733e-04  5.4389e-04  4.8733e-04  3.7348e-05  5.5571e-04  2.3431e-05  
   462  1.5077e-04  5.7833e-04  5.4326e-04  4.7677e-04  3.7861e-05  5.9701e-04  2.4038e-05  
   463  1.4915e-04  6.5174e-04  6.0150e-04  4.7786e-04  3.6851e-05  6.2668e-04  2.3154e-05  
   464  1.4816e-04  5.7325e-04  5.5918e-04  4.4767e-04  3.6766e-05  6.6261e-04  2.1896e-05  
   465  1.4770e-04  5.5521e-04  5.4850e-04  4.2062e-04  3.7718e-05  7.1919e-04  2.5747e-05  
   466  1.4779e-04  5.4527e-04  5.4138e-04  3.9728e-04  3.6751e-05  7.9539e-04  2.4804e-05  
   467  1.4889e-04  5.4724e-04  5.4547e-04  3.7908e-04  3.9646e-05  8.4498e-04  3.4338e-05  
   468  1.4720e-04  5.7338e-04  5.4597e-04  3.7490e-04  4.5919e-05  9.0142e-04  3.7559e-05  
   469  1.5040e-04  5.3899e-04  5.2355e-04  3.5631e-04  8.2016e-05  6.5904e-04  1.0196e-04  
   470  1.5394e-04  5.5280e-04  5.0985e-04  3.5250e-04  8.9031e-05  4.8645e-04  6.5866e-05  
   471  1.4575e-04  5.4336e-04  5.0054e-04  3.4727e-04  3.8669e-05  4.2854e-04  5.6737e-05  
   472  1.4362e-04  5.0485e-04  4.9828e-04  3.4529e-04  3.7638e-05  4.0754e-04  3.6361e-05  
   473  1.4800e-04  4.9039e-04  4.9608e-04  3.4329e-04  9.4024e-05  4.7742e-04  1.2181e-04  
   474  1.5244e-04  5.2638e-04  4.9549e-04  3.5162e-04  9.4728e-05  4.4972e-04  7.1683e-05  
   475  1.4443e-04  5.1322e-04  4.9316e-04  3.5735e-04  4.0534e-05  3.9764e-04  3.1270e-05  
  iter  continuity   xvelocity   yvelocity   zvelocity    energy-T         tke         tef  
   476  1.4401e-04  4.7520e-04  4.9621e-04  3.6517e-04  4.1656e-05  3.8543e-04  3.3687e-05  
   477  1.4575e-04  4.5933e-04  4.9109e-04  3.7075e-04  3.6480e-05  3.7958e-04  2.3908e-05  
   478  1.4175e-04  4.5238e-04  4.8221e-04  3.7865e-04  6.1342e-05  3.9078e-04  6.9079e-05  
   479  1.4589e-04  4.5510e-04  4.7991e-04  3.8915e-04  1.0183e-04  4.4277e-04  1.1353e-04  
   480  1.4861e-04  4.9897e-04  4.7194e-04  3.9275e-04  9.3715e-05  4.2224e-04  7.3532e-05  
   481  1.4096e-04  4.8628e-04  4.5352e-04  3.9302e-04  3.6811e-05  3.7712e-04  5.2412e-05  
   482  1.3915e-04  4.6046e-04  4.4855e-04  3.9500e-04  3.7913e-05  3.6994e-04  3.1692e-05  
   483  1.3838e-04  4.5675e-04  4.3721e-04  3.9556e-04  3.6778e-05  3.7402e-04  2.7811e-05  
   484  1.3927e-04  4.5791e-04  4.2450e-04  3.9765e-04  4.3212e-05  3.8394e-04  2.9963e-05  
   485  1.4031e-04  4.5790e-04  4.0706e-04  3.9765e-04  3.6653e-05  3.9872e-04  2.5738e-05  
   486  1.3942e-04  4.5552e-04  3.8943e-04  4.0018e-04  3.8125e-05  4.2749e-04  1.9765e-05  
   487  1.3868e-04  4.5330e-04  3.7784e-04  4.0500e-04  3.7621e-05  4.6836e-04  2.3791e-05  
   488  1.3868e-04  4.5451e-04  3.6576e-04  4.1069e-04  3.6550e-05  4.8019e-04  1.8997e-05  
   489  1.3811e-04  4.5687e-04  3.5317e-04  4.1663e-04  3.7290e-05  4.0908e-04  1.8276e-05  
   490  1.3749e-04  4.6584e-04  3.4445e-04  4.2013e-04  3.6108e-05  3.8752e-04  1.7889e-05  
   491  1.3688e-04  4.6580e-04  3.3874e-04  4.2349e-04  3.8699e-05  4.3680e-04  3.3704e-05  
   492  1.3850e-04  4.7833e-04  3.4578e-04  4.2464e-04  5.2371e-05  5.0864e-04  4.7324e-05  
   493  1.3849e-04  5.0846e-04  3.4585e-04  4.2768e-04  4.7423e-05  5.1284e-04  3.2777e-05  
   494  1.3741e-04  5.0223e-04  3.4821e-04  4.3361e-04  3.6549e-05  5.0818e-04  2.1472e-05  
   495  1.3624e-04  5.0585e-04  3.4280e-04  4.3255e-04  3.5211e-05  4.7585e-04  1.9227e-05  
   496  1.4040e-04  5.0859e-04  3.6071e-04  4.3995e-04  6.1595e-05  4.9507e-04  7.7845e-05  
   497  1.4219e-04  5.3329e-04  3.6498e-04  4.4014e-04  6.0939e-05  4.6676e-04  3.9714e-05  
   498  1.3769e-04  5.0674e-04  3.7156e-04  4.3913e-04  3.8971e-05  4.7759e-04  4.2172e-05  
   499  1.3666e-04  4.6856e-04  3.6695e-04  4.2321e-04  3.7776e-05  4.7241e-04  2.1656e-05  
   500  1.3696e-04  4.6569e-04  3.8761e-04  4.1524e-04  3.5453e-05  4.7982e-04  2.3824e-05  
  iter  continuity   xvelocity   yvelocity   zvelocity    energy-T         tke         tef  
   501  1.3660e-04  4.6746e-04  4.1408e-04  3.9706e-04  3.7430e-05  4.9945e-04  2.0167e-05  
   502  1.3774e-04  4.4764e-04  4.0410e-04  3.8025e-04  3.4573e-05  5.7617e-04  1.8823e-05  
   503  1.3799e-04  4.4440e-04  4.0563e-04  3.6346e-04  3.4435e-05  6.0197e-04  1.7299e-05  
   504  1.3798e-04  4.4063e-04  3.8116e-04  3.5175e-04  3.4963e-05  5.9071e-04  1.7458e-05  
   505  1.3858e-04  4.4017e-04  3.6878e-04  3.4235e-04  3.4993e-05  5.5859e-04  2.2539e-05  
   506  1.3928e-04  4.3722e-04  3.6381e-04  3.3537e-04  3.4243e-05  5.1156e-04  1.9769e-05  
   507  1.3858e-04  4.3592e-04  3.6289e-04  3.2479e-04  3.7769e-05  4.6471e-04  2.5872e-05  
   508  1.3697e-04  4.4926e-04  3.7028e-04  3.1993e-04  3.5523e-05  4.2452e-04  3.6209e-05  
   509  1.3724e-04  4.5351e-04  3.6961e-04  3.1577e-04  3.7653e-05  3.9194e-04  2.0314e-05  
   510  1.4283e-04  4.6714e-04  3.7863e-04  3.1774e-04  7.9142e-05  4.4600e-04  1.2142e-04  
   511  1.5456e-04  5.1631e-04  4.0454e-04  3.2426e-04  4.3573e-05  4.2609e-04  6.0433e-05  
   512  1.4662e-04  4.8862e-04  3.9194e-04  3.1793e-04  9.8986e-05  4.4373e-04  1.1317e-04  
   513  1.4057e-04  4.8948e-04  3.7931e-04  3.1844e-04  3.8241e-05  4.0160e-04  5.3050e-05  
   514  1.4534e-04  4.6459e-04  3.6636e-04  3.1611e-04  1.3101e-04  5.3276e-04  1.7968e-04  
   515  1.5722e-04  5.2385e-04  3.8205e-04  3.1080e-04  1.3894e-04  4.9113e-04  1.2020e-04  
   516  1.4100e-04  5.1408e-04  3.5783e-04  2.9524e-04  3.7659e-05  4.0954e-04  5.6598e-05  
   517  1.4537e-04  4.6291e-04  3.5613e-04  3.0193e-04  1.2365e-04  5.0739e-04  1.7789e-04  
   518  1.6340e-04  4.8493e-04  3.5465e-04  2.9202e-04  8.2858e-05  4.3674e-04  5.7169e-05  
   519  1.4425e-04  4.4613e-04  3.3812e-04  2.7907e-04  7.4410e-05  4.0503e-04  1.0793e-04  
   520  1.3951e-04  3.9819e-04  3.1516e-04  2.7342e-04  3.6138e-05  3.6120e-04  6.8003e-05  
   521  1.3651e-04  3.7029e-04  2.9583e-04  2.6382e-04  4.2807e-05  3.2747e-04  3.5065e-05  
   522  1.4102e-04  3.6518e-04  2.8728e-04  2.5612e-04  9.6914e-05  3.9062e-04  1.2649e-04  
   523  1.4544e-04  3.9896e-04  2.9520e-04  2.4978e-04  1.1788e-04  3.7496e-04  9.9278e-05  
   524  1.3486e-04  3.7404e-04  2.6716e-04  2.3910e-04  3.6014e-05  2.9085e-04  5.8487e-05  
   525  1.3362e-04  3.3402e-04  2.6797e-04  2.4164e-04  3.7467e-05  2.7618e-04  2.7966e-05  
  iter  continuity   xvelocity   yvelocity   zvelocity    energy-T         tke         tef  
   526  1.3421e-04  3.0414e-04  2.5923e-04  2.3330e-04  3.6140e-05  2.6322e-04  1.6680e-05  
   527  1.3407e-04  2.9602e-04  2.4985e-04  2.3045e-04  3.3366e-05  2.6190e-04  1.2067e-05  
   528  1.3403e-04  2.8418e-04  2.3916e-04  2.2812e-04  3.3015e-05  2.5572e-04  1.0883e-05  
   529  1.3318e-04  2.7507e-04  2.3004e-04  2.2573e-04  3.2804e-05  2.4935e-04  1.0371e-05  
   530  1.3225e-04  2.6652e-04  2.2367e-04  2.2368e-04  3.2673e-05  2.4132e-04  9.8071e-06  
   531  1.3119e-04  2.5908e-04  2.1913e-04  2.2159e-04  3.2551e-05  2.3239e-04  8.9953e-06  
   532  1.3021e-04  2.5232e-04  2.1624e-04  2.1913e-04  3.2437e-05  2.2188e-04  8.5294e-06  
   533  1.3044e-04  2.4678e-04  2.1445e-04  2.1656e-04  3.7124e-05  2.1435e-04  3.0258e-05  
   534  1.3109e-04  2.4646e-04  2.1401e-04  2.1412e-04  3.3202e-05  1.9214e-04  1.8739e-05  
   535  1.3009e-04  2.3807e-04  2.1308e-04  2.1160e-04  3.3377e-05  1.7216e-04  1.1942e-05  
   536  1.2852e-04  2.3746e-04  2.1702e-04  2.0863e-04  3.2995e-05  1.6106e-04  1.4546e-05  
   537  1.2782e-04  2.3303e-04  2.1387e-04  2.0653e-04  3.2312e-05  1.5504e-04  9.2584e-06  
   538  1.2849e-04  2.3313e-04  2.1985e-04  2.0458e-04  3.2959e-05  1.5252e-04  2.3782e-05  
   539  1.2946e-04  2.3944e-04  2.2510e-04  2.0547e-04  3.1999e-05  1.4234e-04  1.5165e-05  
   540  1.3015e-04  2.2701e-04  2.2569e-04  2.0227e-04  3.3180e-05  1.4778e-04  1.9292e-05  
   541  1.3360e-04  2.4127e-04  2.4363e-04  2.0460e-04  5.5470e-05  2.5266e-04  8.9786e-05  
   542  1.4301e-04  2.6361e-04  2.5850e-04  2.0895e-04  3.8288e-05  2.5577e-04  5.3656e-05  
   543  1.3804e-04  2.6065e-04  2.7042e-04  2.1096e-04  1.0507e-04  3.1509e-04  1.2819e-04  
   544  1.3282e-04  3.0384e-04  2.7701e-04  2.1152e-04  4.0552e-05  2.3970e-04  5.9372e-05  
   545  1.2914e-04  2.7300e-04  2.7263e-04  2.1013e-04  3.7874e-05  1.8229e-04  2.8928e-05  
   546  1.2854e-04  2.5186e-04  2.6247e-04  2.0270e-04  3.2917e-05  1.7375e-04  1.9222e-05  
   547  1.2835e-04  2.5934e-04  2.5991e-04  2.0284e-04  3.1481e-05  1.8096e-04  1.6202e-05  
   548  1.3000e-04  2.5659e-04  2.5094e-04  2.0429e-04  3.7396e-05  1.7352e-04  2.4709e-05  
   549  1.3042e-04  2.6545e-04  2.6068e-04  2.0374e-04  3.2329e-05  1.6927e-04  1.5983e-05  
   550  1.3025e-04  2.4569e-04  2.5123e-04  2.0205e-04  3.2219e-05  1.6221e-04  1.3470e-05  
  iter  continuity   xvelocity   yvelocity   zvelocity    energy-T         tke         tef  
   551  1.2950e-04  2.4615e-04  2.5782e-04  2.0305e-04  3.3017e-05  1.6343e-04  1.3725e-05  
   552  1.2882e-04  2.5457e-04  2.6855e-04  2.0545e-04  3.2894e-05  1.6074e-04  1.3729e-05  
   553  1.3290e-04  2.5003e-04  2.7652e-04  2.0772e-04  7.9112e-05  3.0792e-04  1.2343e-04  
   554  1.4175e-04  3.4454e-04  3.1448e-04  2.2343e-04  9.9198e-05  2.8250e-04  7.7355e-05  
   555  1.2987e-04  3.8268e-04  3.3426e-04  2.3168e-04  3.3274e-05  1.9531e-04  5.0725e-05  
   556  1.2793e-04  2.7714e-04  3.1807e-04  2.2646e-04  3.2068e-05  1.7791e-04  3.7369e-05  
   557  1.2753e-04  2.5958e-04  3.2110e-04  2.2134e-04  3.3589e-05  1.8765e-04  2.6088e-05  
   558  1.2801e-04  2.6071e-04  3.3231e-04  2.2513e-04  3.2602e-05  2.0390e-04  1.9219e-05  
   559  1.2901e-04  2.5899e-04  3.4204e-04  2.2863e-04  3.1914e-05  2.1337e-04  1.7484e-05  
   560  1.2908e-04  2.6266e-04  3.5404e-04  2.3261e-04  3.1622e-05  2.2021e-04  1.7897e-05  
   561  1.2921e-04  2.6399e-04  3.6236e-04  2.3686e-04  3.1430e-05  2.2367e-04  1.8234e-05  
   562  1.3069e-04  2.6864e-04  3.7064e-04  2.4125e-04  4.1422e-05  2.3563e-04  4.2376e-05  
   563  1.3075e-04  2.9240e-04  3.8384e-04  2.4767e-04  4.7019e-05  2.3159e-04  3.1250e-05  
   564  1.2958e-04  2.8513e-04  3.8781e-04  2.5165e-04  3.4734e-05  2.2264e-04  2.0885e-05  
   565  1.2997e-04  2.9548e-04  3.9465e-04  2.5794e-04  3.1951e-05  2.2311e-04  2.2218e-05  
   566  1.3498e-04  2.9894e-04  3.9710e-04  2.6641e-04  6.6461e-05  3.2202e-04  1.0443e-04  
   567  1.4613e-04  3.6512e-04  4.0886e-04  2.8197e-04  3.8154e-05  3.1850e-04  6.5173e-05  
   568  1.4302e-04  3.5479e-04  4.0685e-04  2.9019e-04  9.1162e-05  3.3458e-04  9.8946e-05  
   569  1.3949e-04  3.6743e-04  4.1288e-04  2.9752e-04  6.5733e-05  3.2374e-04  5.4099e-05  
   570  1.3738e-04  3.6905e-04  4.1276e-04  2.9925e-04  7.2841e-05  3.3537e-04  8.8437e-05  
   571  1.3475e-04  3.7136e-04  4.1583e-04  3.0332e-04  3.4264e-05  3.0413e-04  6.1041e-05  
   572  1.3522e-04  3.5839e-04  4.2931e-04  3.1344e-04  4.6711e-05  2.7642e-04  3.2937e-05  
   573  1.3506e-04  3.4680e-04  4.2955e-04  3.0818e-04  3.2331e-05  2.6931e-04  2.4314e-05  
   574  1.3603e-04  3.3843e-04  4.3068e-04  3.0433e-04  4.1070e-05  2.6601e-04  3.5872e-05  
   575  1.3740e-04  3.5023e-04  4.3069e-04  3.0393e-04  3.1908e-05  2.5977e-04  2.7724e-05  
  iter  continuity   xvelocity   yvelocity   zvelocity    energy-T         tke         tef  
   576  1.3738e-04  3.4439e-04  4.3277e-04  3.0212e-04  3.2072e-05  2.6456e-04  2.0882e-05  
   577  1.3648e-04  3.3978e-04  4.2516e-04  3.0194e-04  3.2640e-05  2.6800e-04  1.7735e-05  
   578  1.3556e-04  3.3396e-04  4.1314e-04  3.0359e-04  3.1367e-05  2.7487e-04  1.6521e-05  
   579  1.3521e-04  3.3159e-04  4.0383e-04  3.0487e-04  3.0995e-05  2.8851e-04  1.5535e-05  
   580  1.3470e-04  3.3279e-04  3.9361e-04  3.0437e-04  3.2725e-05  2.9400e-04  2.5767e-05  
   581  1.3375e-04  3.3508e-04  3.8793e-04  3.0545e-04  3.0925e-05  2.8780e-04  1.8804e-05  
   582  1.3442e-04  3.2507e-04  3.7511e-04  3.0604e-04  3.2369e-05  2.7573e-04  1.6329e-05  
   583  1.3508e-04  3.1800e-04  3.6506e-04  3.0444e-04  3.1245e-05  2.6214e-04  1.6278e-05  
   584  1.3569e-04  3.1699e-04  3.5956e-04  3.0372e-04  3.2047e-05  2.5135e-04  2.3141e-05  
   585  1.3641e-04  3.1152e-04  3.4903e-04  3.0240e-04  3.1715e-05  2.3999e-04  1.8079e-05  
   586  1.3563e-04  3.0838e-04  3.4067e-04  3.0153e-04  3.2782e-05  2.3220e-04  2.1493e-05  
   587  1.3506e-04  3.1115e-04  3.3775e-04  3.0337e-04  3.0801e-05  2.2090e-04  1.9716e-05  
   588  1.3362e-04  3.0410e-04  3.2844e-04  3.0124e-04  3.3747e-05  2.1887e-04  3.4200e-05  
   589  1.3319e-04  3.0326e-04  3.2614e-04  2.9846e-04  3.1308e-05  2.0535e-04  2.4231e-05  
   590  1.3325e-04  3.0320e-04  3.2492e-04  2.9367e-04  3.1131e-05  1.9679e-04  1.9639e-05  
   591  1.3333e-04  2.9947e-04  3.2571e-04  2.8876e-04  3.0631e-05  1.9573e-04  2.0651e-05  
   592  1.3278e-04  2.9785e-04  3.2817e-04  2.8460e-04  3.0377e-05  1.9730e-04  2.3123e-05  
   593  1.3274e-04  2.9650e-04  3.3083e-04  2.8270e-04  3.0643e-05  1.9654e-04  2.0166e-05  
   594  1.3283e-04  2.9646e-04  3.3510e-04  2.8065e-04  3.0404e-05  1.9628e-04  1.9302e-05  
   595  1.3422e-04  2.9524e-04  3.4106e-04  2.7826e-04  3.7705e-05  2.0076e-04  4.1095e-05  
   596  1.3693e-04  3.0136e-04  3.5123e-04  2.7747e-04  3.1655e-05  2.0964e-04  4.4500e-05  
   597  1.3868e-04  2.9792e-04  3.6005e-04  2.7638e-04  3.0969e-05  2.1477e-04  3.9197e-05  
   598  1.3740e-04  2.9929e-04  3.6701e-04  2.7425e-04  4.6435e-05  2.1427e-04  3.8869e-05  
   599  1.3405e-04  3.0236e-04  3.7121e-04  2.7180e-04  3.0216e-05  2.0221e-04  3.2579e-05  
   600  1.3264e-04  3.0227e-04  3.7664e-04  2.6944e-04  2.9720e-05  1.9772e-04  2.6620e-05  
  iter  continuity   xvelocity   yvelocity   zvelocity    energy-T         tke         tef  
   601  1.3276e-04  3.0123e-04  3.8022e-04  2.6747e-04  3.2900e-05  2.0141e-04  2.1539e-05  
   602  1.3381e-04  3.0757e-04  3.8520e-04  2.6570e-04  3.2305e-05  2.1101e-04  3.0632e-05  
   603  1.3347e-04  3.0574e-04  3.8750e-04  2.6406e-04  4.3054e-05  2.2134e-04  4.1192e-05  
   604  1.3158e-04  3.1026e-04  3.8871e-04  2.6510e-04  2.9558e-05  2.1268e-04  2.8619e-05  
   605  1.3133e-04  3.1528e-04  3.9163e-04  2.6497e-04  2.9973e-05  2.1683e-04  2.2480e-05  
   606  1.3182e-04  3.1893e-04  3.9777e-04  2.6492e-04  2.9641e-05  2.2148e-04  2.1698e-05  
   607  1.3232e-04  3.2553e-04  4.0504e-04  2.6567e-04  2.9370e-05  2.2944e-04  2.1854e-05  
   608  1.3323e-04  3.2939e-04  4.1294e-04  2.6590e-04  2.9335e-05  2.3539e-04  2.5764e-05  
   609  1.3493e-04  3.5271e-04  4.3726e-04  2.7193e-04  3.1529e-05  2.6181e-04  3.6851e-05  
   610  1.3386e-04  3.6655e-04  4.4921e-04  2.7937e-04  4.4088e-05  2.5767e-04  3.7076e-05  
   611  1.3186e-04  3.7457e-04  4.6761e-04  2.8319e-04  2.8712e-05  2.5772e-04  3.2669e-05  
   612  1.3116e-04  3.6202e-04  4.7462e-04  2.8761e-04  2.8919e-05  2.6280e-04  2.4620e-05  
   613  1.3186e-04  3.6654e-04  4.9293e-04  2.9601e-04  2.8580e-05  2.7145e-04  2.2502e-05  
   614  1.3260e-04  3.7209e-04  5.1205e-04  3.0730e-04  2.9016e-05  2.8136e-04  2.4569e-05  
   615  1.3322e-04  3.7794e-04  5.2923e-04  3.1750e-04  2.7765e-05  2.8684e-04  2.3119e-05  
   616  1.3335e-04  3.8223e-04  5.4421e-04  3.2423e-04  2.7481e-05  2.9169e-04  2.4023e-05  
   617  1.3353e-04  3.8759e-04  5.5574e-04  3.2943e-04  2.7321e-05  2.9751e-04  2.1976e-05  
   618  1.3434e-04  3.9485e-04  5.6358e-04  3.3526e-04  2.9072e-05  3.0579e-04  2.7891e-05  
   619  1.3608e-04  4.0399e-04  5.7158e-04  3.4361e-04  3.2435e-05  3.1453e-04  4.3089e-05  
   620  1.3806e-04  4.1298e-04  5.8266e-04  3.4901e-04  3.2841e-05  3.1146e-04  2.6339e-05  
   621  1.3870e-04  4.4045e-04  5.9936e-04  3.5471e-04  2.6913e-05  3.1705e-04  2.4400e-05  
   622  1.3707e-04  4.2420e-04  5.7725e-04  3.5471e-04  3.6840e-05  3.2569e-04  3.9301e-05  
   623  1.3552e-04  4.2866e-04  5.6594e-04  3.5747e-04  2.7437e-05  3.3086e-04  2.9011e-05  
   624  1.3515e-04  4.4205e-04  5.6126e-04  3.6130e-04  2.7139e-05  3.4188e-04  3.2245e-05  
   625  1.3569e-04  4.4334e-04  5.4553e-04  3.6402e-04  3.2646e-05  3.5618e-04  2.8741e-05  
  iter  continuity   xvelocity   yvelocity   zvelocity    energy-T         tke         tef  
   626  1.3648e-04  4.5236e-04  5.3969e-04  3.6692e-04  2.7497e-05  3.6665e-04  2.4425e-05  
   627  1.3666e-04  4.5693e-04  5.2731e-04  3.6998e-04  2.7478e-05  3.8067e-04  2.4977e-05  
   628  1.3676e-04  4.6244e-04  5.1756e-04  3.7287e-04  2.9697e-05  4.0692e-04  2.9887e-05  
   629  1.3702e-04  4.7685e-04  5.1102e-04  3.7872e-04  2.8043e-05  4.2200e-04  2.6958e-05  
   630  1.3678e-04  4.7585e-04  5.0523e-04  3.8099e-04  2.8306e-05  4.3366e-04  2.7116e-05  
   631  1.3662e-04  4.7711e-04  4.9941e-04  3.7972e-04  2.7678e-05  4.3391e-04  2.6692e-05  
   632  1.3628e-04  4.8679e-04  4.9433e-04  3.7864e-04  2.9900e-05  4.2115e-04  2.9779e-05  
   633  1.3601e-04  4.9762e-04  4.9085e-04  3.8069e-04  2.7015e-05  4.2331e-04  2.7943e-05  
   634  1.3635e-04  5.1514e-04  4.8996e-04  3.8466e-04  2.6949e-05  4.4470e-04  2.7467e-05  
   635  1.3738e-04  5.3702e-04  4.8839e-04  3.9160e-04  2.7490e-05  4.5691e-04  2.7116e-05  
   636  1.3788e-04  5.6480e-04  4.8849e-04  3.9900e-04  2.7213e-05  4.5087e-04  2.6826e-05  
   637  1.3840e-04  5.9690e-04  4.8311e-04  4.0748e-04  2.6990e-05  4.4771e-04  2.6077e-05  
   638  1.3921e-04  6.1915e-04  4.7579e-04  4.1177e-04  2.6765e-05  4.3727e-04  2.5441e-05  
   639  1.4044e-04  6.1877e-04  4.6437e-04  4.1287e-04  2.7619e-05  4.2354e-04  2.7961e-05  
   640  1.4086e-04  6.0771e-04  4.5538e-04  4.1263e-04  2.8036e-05  4.3157e-04  2.4551e-05  
   641  1.4003e-04  5.9620e-04  4.4466e-04  4.1160e-04  2.7292e-05  4.6244e-04  2.7186e-05  
   642  1.4022e-04  5.8964e-04  4.4067e-04  4.0712e-04  2.7699e-05  4.8669e-04  2.3704e-05  
   643  1.3991e-04  5.9067e-04  4.3891e-04  4.1157e-04  2.6526e-05  4.9637e-04  2.2483e-05  
   644  1.4003e-04  5.6538e-04  4.1616e-04  4.0833e-04  2.6427e-05  4.8737e-04  2.2970e-05  
   645  1.3974e-04  5.5323e-04  4.0364e-04  4.1041e-04  2.6524e-05  4.5655e-04  2.3721e-05  
   646  1.4079e-04  5.4241e-04  3.9306e-04  4.0825e-04  3.3655e-05  4.1781e-04  3.8435e-05  
   647  1.4078e-04  5.3280e-04  3.8044e-04  3.9863e-04  3.5823e-05  3.8510e-04  2.6899e-05  
   648  1.3916e-04  5.1840e-04  3.6762e-04  3.8639e-04  2.6220e-05  3.7805e-04  2.3281e-05  
   649  1.4216e-04  5.1463e-04  3.5955e-04  3.7795e-04  5.9166e-05  4.2939e-04  8.2136e-05  
   650  1.4550e-04  5.3029e-04  3.6235e-04  3.7835e-04  6.2737e-05  4.1537e-04  4.6931e-05  
  iter  continuity   xvelocity   yvelocity   zvelocity    energy-T         tke         tef  
   651  1.4097e-04  5.3243e-04  3.6773e-04  3.7993e-04  3.1552e-05  4.1315e-04  2.4345e-05  
   652  1.3888e-04  5.1455e-04  3.4811e-04  3.7794e-04  4.2373e-05  4.0465e-04  5.0520e-05  
   653  1.3741e-04  5.1256e-04  3.4837e-04  3.7721e-04  2.8139e-05  3.9015e-04  3.3004e-05  
   654  1.4110e-04  5.0233e-04  3.5270e-04  3.7910e-04  8.2969e-05  4.6809e-04  1.1418e-04  
   655  1.5096e-04  5.2078e-04  3.5769e-04  3.8422e-04  3.6610e-05  4.6898e-04  5.7126e-05  
   656  1.4857e-04  4.9807e-04  3.6264e-04  3.8020e-04  3.2982e-05  4.9503e-04  3.3063e-05  
   657  1.4345e-04  4.8067e-04  3.5636e-04  3.6881e-04  6.1018e-05  5.4377e-04  7.3150e-05  
   658  1.3948e-04  4.8652e-04  3.7022e-04  3.5823e-04  3.0442e-05  5.6596e-04  3.8248e-05  
   659  1.3734e-04  4.7105e-04  3.7075e-04  3.4705e-04  2.8541e-05  5.4627e-04  2.4608e-05  
   660  1.3698e-04  4.8487e-04  3.9268e-04  3.4154e-04  2.9798e-05  4.7382e-04  1.9961e-05  
   661  1.3558e-04  4.9146e-04  3.9615e-04  3.3454e-04  3.8431e-05  4.2169e-04  5.1928e-05  
   662  1.3579e-04  5.3519e-04  4.1501e-04  3.3171e-04  2.6176e-05  3.9671e-04  4.2897e-05  
   663  1.3669e-04  5.0349e-04  4.0536e-04  3.2334e-04  3.1304e-05  4.0969e-04  2.3413e-05  
   664  1.3712e-04  4.8491e-04  3.8467e-04  3.1676e-04  2.5704e-05  4.3913e-04  2.3378e-05  
   665  1.4293e-04  4.7145e-04  3.8291e-04  3.1183e-04  9.4886e-05  5.7369e-04  1.3689e-04  
   666  1.5018e-04  5.0487e-04  3.8142e-04  3.1607e-04  9.2872e-05  5.8892e-04  6.2263e-05  
   667  1.3784e-04  4.7902e-04  3.7844e-04  3.0530e-04  3.2214e-05  5.7594e-04  5.9272e-05  
   668  1.3551e-04  4.3189e-04  3.7027e-04  2.9515e-04  2.5827e-05  5.5059e-04  3.7846e-05  
   669  1.3597e-04  4.1271e-04  3.7093e-04  2.8721e-04  3.9533e-05  5.2662e-04  2.5072e-05  
   670  1.3667e-04  4.1473e-04  3.7528e-04  2.8495e-04  2.6755e-05  4.9085e-04  2.9754e-05  
   671  1.3660e-04  4.0260e-04  3.7067e-04  2.8258e-04  3.2405e-05  4.5206e-04  2.5817e-05  
   672  1.3535e-04  3.9048e-04  3.6915e-04  2.7698e-04  2.5765e-05  3.9781e-04  1.4635e-05  
   673  1.3481e-04  3.8927e-04  3.7309e-04  2.7484e-04  2.4157e-05  3.5439e-04  1.4403e-05  
   674  1.3484e-04  3.7753e-04  3.6716e-04  2.6953e-04  2.3899e-05  3.2006e-04  1.4212e-05  
   675  1.3622e-04  3.7443e-04  3.6757e-04  2.6527e-04  3.3038e-05  2.9632e-04  3.6538e-05  
  iter  continuity   xvelocity   yvelocity   zvelocity    energy-T         tke         tef  
   676  1.3701e-04  3.7685e-04  3.5979e-04  2.6366e-04  3.0340e-05  2.7411e-04  1.8575e-05  
   677  1.3570e-04  3.6747e-04  3.5475e-04  2.5996e-04  2.4145e-05  2.5541e-04  1.7155e-05  
   678  1.3490e-04  3.5944e-04  3.4891e-04  2.5728e-04  2.3734e-05  2.4922e-04  1.4175e-05  
   679  1.3487e-04  3.5441e-04  3.4341e-04  2.5426e-04  2.4035e-05  2.5719e-04  1.5911e-05  
   680  1.3481e-04  3.9703e-04  3.7466e-04  2.6165e-04  2.9449e-05  2.5308e-04  2.8353e-05  
   681  1.3498e-04  3.6571e-04  3.4698e-04  2.5632e-04  3.1965e-05  2.5982e-04  2.4413e-05  
   682  1.3336e-04  3.5121e-04  3.3812e-04  2.5588e-04  2.4710e-05  2.6104e-04  1.5955e-05  
   683  1.3267e-04  3.4760e-04  3.3449e-04  2.5747e-04  2.4059e-05  2.7442e-04  1.6854e-05  
   684  1.3965e-04  3.4848e-04  3.3440e-04  2.6188e-04  1.1068e-04  4.6971e-04  1.7460e-04  
   685  1.5458e-04  4.8408e-04  3.8134e-04  2.8539e-04  1.3164e-04  4.2614e-04  1.0236e-04  
   686  1.3786e-04  5.1796e-04  3.8413e-04  2.9276e-04  2.8641e-05  3.6365e-04  4.7114e-05  
   687  1.3656e-04  4.4292e-04  3.8503e-04  2.9296e-04  2.3928e-05  3.2597e-04  2.9441e-05  
   688  1.3591e-04  3.7070e-04  3.2954e-04  2.8106e-04  2.5889e-05  3.3950e-04  2.1107e-05  
   689  1.3961e-04  3.6696e-04  3.2304e-04  2.8360e-04  5.8961e-05  3.8585e-04  8.4031e-05  
   690  1.4254e-04  4.0159e-04  3.3217e-04  2.9155e-04  9.5904e-05  3.7952e-04  8.7253e-05  
   691  1.3630e-04  4.0459e-04  3.2381e-04  2.8946e-04  2.7762e-05  3.6772e-04  4.7944e-05  
   692  1.3714e-04  3.8586e-04  3.3055e-04  2.9406e-04  4.9484e-05  4.0687e-04  4.3345e-05  
   693  1.4271e-04  3.9173e-04  3.3799e-04  2.9528e-04  6.1200e-05  5.1678e-04  1.1533e-04  
   694  1.4854e-04  4.3018e-04  3.4832e-04  3.0598e-04  8.8984e-05  5.5515e-04  6.8037e-05  
   695  1.3809e-04  4.2584e-04  3.4041e-04  3.0607e-04  2.5560e-05  5.5775e-04  4.7394e-05  
   696  1.3541e-04  3.9746e-04  3.5395e-04  3.1053e-04  2.5526e-05  5.8763e-04  4.8324e-05  
   697  1.4072e-04  3.9150e-04  3.6808e-04  3.1418e-04  9.7794e-05  6.4918e-04  1.1997e-04  
   698  1.4476e-04  4.4843e-04  3.8606e-04  3.2015e-04  9.8995e-05  6.3993e-04  8.4068e-05  
   699  1.3658e-04  4.5042e-04  3.9321e-04  3.2060e-04  2.6052e-05  6.0130e-04  4.9508e-05  
   700  1.3588e-04  4.1559e-04  4.1069e-04  3.2769e-04  2.6198e-05  5.7866e-04  3.1027e-05  
  iter  continuity   xvelocity   yvelocity   zvelocity    energy-T         tke         tef  
   701  1.3624e-04  4.0470e-04  4.2047e-04  3.2652e-04  2.4091e-05  5.6383e-04  2.7544e-05  
   702  1.3699e-04  4.1282e-04  4.4055e-04  3.3354e-04  2.5334e-05  5.5437e-04  2.9155e-05  
   703  1.3876e-04  4.2232e-04  4.5962e-04  3.4135e-04  2.9468e-05  4.4213e-04  3.8845e-05  
   704  1.3920e-04  4.2644e-04  4.7600e-04  3.4867e-04  2.6751e-05  3.7762e-04  3.0264e-05  
   705  1.3808e-04  4.3009e-04  4.8632e-04  3.5656e-04  2.3479e-05  3.4317e-04  2.9459e-05  
   706  1.3719e-04  4.3785e-04  4.9962e-04  3.6530e-04  2.3991e-05  3.2850e-04  3.0578e-05  
   707  1.3936e-04  4.4558e-04  5.1439e-04  3.7658e-04  4.4423e-05  3.3701e-04  6.1343e-05  
   708  1.4034e-04  4.6513e-04  5.2786e-04  3.8504e-04  5.4417e-05  3.2685e-04  5.1022e-05  
   709  1.3810e-04  4.6456e-04  5.4117e-04  3.9063e-04  2.5316e-05  3.1450e-04  3.4612e-05  
   710  1.3773e-04  4.6303e-04  5.5640e-04  3.9466e-04  2.3288e-05  3.0940e-04  3.2555e-05  
   711  1.3830e-04  4.6357e-04  5.6270e-04  3.9722e-04  2.3609e-05  3.1249e-04  3.2057e-05  
   712  1.3880e-04  4.7177e-04  5.7474e-04  4.0529e-04  2.3348e-05  3.1899e-04  3.1984e-05  
   713  1.3931e-04  4.8203e-04  5.8701e-04  4.1309e-04  2.3398e-05  3.3237e-04  3.2909e-05  
   714  1.4027e-04  4.9260e-04  6.0067e-04  4.1968e-04  2.5299e-05  3.4338e-04  3.4720e-05  
   715  1.4069e-04  4.9938e-04  6.0796e-04  4.2107e-04  2.2943e-05  3.5316e-04  3.2152e-05  
   716  1.3996e-04  4.9990e-04  6.0740e-04  4.1901e-04  2.5093e-05  3.6977e-04  3.3149e-05  
   717  1.4029e-04  5.0437e-04  6.2079e-04  4.1847e-04  2.8152e-05  3.8928e-04  3.4078e-05  
   718  1.4221e-04  5.1115e-04  6.3641e-04  4.1989e-04  2.5548e-05  4.1459e-04  4.0873e-05  
   719  1.4371e-04  5.0818e-04  6.4694e-04  4.2089e-04  2.4360e-05  4.4126e-04  3.5582e-05  
   720  1.4377e-04  5.2027e-04  6.5958e-04  4.2366e-04  2.3953e-05  4.6691e-04  3.1015e-05  
   721  1.4126e-04  5.0966e-04  6.4885e-04  4.2367e-04  5.2979e-05  5.5898e-04  7.8609e-05  
   722  1.4192e-04  5.1855e-04  6.4295e-04  4.3386e-04  4.9788e-05  6.0823e-04  4.0081e-05  
   723  1.4809e-04  5.3388e-04  6.3993e-04  4.3732e-04  9.4014e-05  6.9477e-04  1.6374e-04  
   724  1.6373e-04  5.8080e-04  6.4356e-04  4.4266e-04  1.0355e-04  6.4346e-04  7.8322e-05  
   725  1.4617e-04  5.7305e-04  6.3974e-04  4.4033e-04  5.4356e-05  5.8507e-04  1.0893e-04  
  iter  continuity   xvelocity   yvelocity   zvelocity    energy-T         tke         tef  
   726  1.4572e-04  5.3794e-04  6.3320e-04  4.5399e-04  3.4665e-05  5.1467e-04  5.2962e-05  
   727  1.4290e-04  5.3706e-04  6.2558e-04  4.5618e-04  3.1158e-05  4.6413e-04  3.6441e-05  
   728  1.4436e-04  5.2896e-04  6.1783e-04  4.5600e-04  3.0453e-05  4.3099e-04  4.0967e-05  
   729  1.4587e-04  5.2418e-04  6.1648e-04  4.5667e-04  2.3491e-05  4.1668e-04  3.6491e-05  
   730  1.4460e-04  5.1393e-04  6.1268e-04  4.5427e-04  3.4175e-05  4.1219e-04  4.1876e-05  
[...]
   908  1.4936e-04  5.8583e-04  5.5315e-04  3.8224e-04  1.6749e-05  9.1077e-04  2.8128e-05  
   909  1.5332e-04  5.5220e-04  5.2811e-04  3.6352e-04  5.1930e-05  6.4737e-04  8.7740e-05  
   910  1.5536e-04  5.5538e-04  5.1347e-04  3.5873e-04  9.0472e-05  4.9532e-04  8.0610e-05  
   911  1.4704e-04  5.5234e-04  5.0643e-04  3.5233e-04  1.9549e-05  4.4007e-04  6.3365e-05  
   912  1.4568e-04  5.1457e-04  5.0540e-04  3.4956e-04  3.2359e-05  4.1072e-04  3.0939e-05  
   913  1.4943e-04  5.0593e-04  5.0410e-04  3.4705e-04  7.4689e-05  4.7440e-04  1.1837e-04  
   914  1.6027e-04  5.3682e-04  5.0764e-04  3.5621e-04  2.3293e-05  4.6099e-04  8.3876e-05  
   915  1.5629e-04  5.1096e-04  4.9684e-04  3.6546e-04  1.0408e-04  4.7666e-04  1.2377e-04  
   916  1.4764e-04  5.1360e-04  4.9967e-04  3.7065e-04  2.3979e-05  4.1884e-04  6.2369e-05  
   917  1.4250e-04  4.7348e-04  5.0139e-04  3.7470e-04  1.8384e-05  4.0438e-04  5.7811e-05  
   918  1.4167e-04  4.5844e-04  4.9536e-04  3.7800e-04  2.2971e-05  3.9452e-04  4.0401e-05  
   919  1.4174e-04  4.5933e-04  4.8932e-04  3.8657e-04  2.5175e-05  3.8349e-04  2.6452e-05  
   920  1.4265e-04  4.5450e-04  4.7798e-04  3.9288e-04  1.9832e-05  3.7997e-04  2.2877e-05  
   921  1.4206e-04  4.5221e-04  4.6688e-04  3.9619e-04  1.6104e-05  3.7009e-04  2.2238e-05  
   922  1.4131e-04  4.5253e-04  4.5099e-04  3.9745e-04  1.5597e-05  3.7465e-04  2.0182e-05  
   923  1.3998e-04  4.5615e-04  4.3646e-04  3.9893e-04  1.6703e-05  3.8048e-04  1.9866e-05  
   924  1.3919e-04  4.5613e-04  4.1983e-04  4.0255e-04  1.8412e-05  3.8163e-04  1.9859e-05  
   925  1.3912e-04  4.5973e-04  4.0451e-04  4.0341e-04  1.7268e-05  3.9430e-04  2.6255e-05  
  iter  continuity   xvelocity   yvelocity   zvelocity    energy-T         tke         tef  
   926  1.4036e-04  4.5849e-04  3.9072e-04  4.0524e-04  1.9098e-05  4.1895e-04  3.6523e-05  
   927  1.4024e-04  4.6211e-04  3.7667e-04  4.0862e-04  2.9135e-05  4.5250e-04  2.6352e-05  
   928  1.3927e-04  4.5665e-04  3.5918e-04  4.1537e-04  2.2220e-05  4.7940e-04  2.4045e-05  
   929  1.3868e-04  4.6130e-04  3.4930e-04  4.1976e-04  2.6338e-05  4.3576e-04  2.3085e-05  
   930  1.3776e-04  4.6112e-04  3.4172e-04  4.2107e-04  1.6006e-05  3.9256e-04  2.2218e-05  
   931  1.3733e-04  4.7165e-04  3.4267e-04  4.2832e-04  1.5972e-05  4.1048e-04  1.9219e-05  
   932  1.3814e-04  4.6948e-04  3.4048e-04  4.2462e-04  1.6473e-05  4.7193e-04  1.9088e-05  
   933  1.3845e-04  4.7061e-04  3.3580e-04  4.2429e-04  1.5476e-05  5.0303e-04  1.8808e-05  
   934  1.3917e-04  4.7363e-04  3.3375e-04  4.2829e-04  1.7519e-05  5.0729e-04  2.4610e-05  
   935  1.3909e-04  4.8247e-04  3.3809e-04  4.3028e-04  2.0368e-05  4.8872e-04  1.9904e-05  
   936  1.3867e-04  4.7993e-04  3.3776e-04  4.3371e-04  1.5710e-05  4.6562e-04  1.7217e-05  
   937  1.3958e-04  4.7607e-04  3.3844e-04  4.3635e-04  2.5755e-05  4.6902e-04  3.6255e-05  
   938  1.3883e-04  4.6706e-04  3.4239e-04  4.3538e-04  4.9147e-05  4.8316e-04  5.2919e-05  
   939  1.3725e-04  4.8792e-04  3.8006e-04  4.3191e-04  1.6698e-05  4.8738e-04  3.5455e-05  
   940  1.3810e-04  4.7162e-04  3.8960e-04  4.1821e-04  3.1939e-05  4.7955e-04  3.2153e-05  
   941  1.3888e-04  4.5170e-04  3.9683e-04  3.9841e-04  1.6549e-05  4.4994e-04  1.7732e-05  
   942  1.3840e-04  4.3586e-04  4.0585e-04  3.7904e-04  1.4807e-05  5.3698e-04  1.7394e-05  
   943  1.3829e-04  4.3844e-04  4.1291e-04  3.6185e-04  1.4796e-05  5.8006e-04  1.8214e-05  
   944  1.3919e-04  4.4283e-04  3.9981e-04  3.5181e-04  1.4587e-05  5.8865e-04  1.6718e-05  
   945  1.3888e-04  4.3532e-04  3.7921e-04  3.4012e-04  1.4742e-05  5.6989e-04  1.6472e-05  
   946  1.3905e-04  4.3179e-04  3.6464e-04  3.3015e-04  1.7395e-05  5.3219e-04  2.2590e-05  
   947  1.3923e-04  4.2561e-04  3.6095e-04  3.2212e-04  1.7184e-05  4.8279e-04  1.7097e-05  
   948  1.3790e-04  4.3156e-04  3.6545e-04  3.1456e-04  2.3604e-05  4.4732e-04  3.5969e-05  
   949  1.3727e-04  4.3721e-04  3.6397e-04  3.0858e-04  1.7576e-05  4.0698e-04  1.9981e-05  
   950  1.3787e-04  4.4677e-04  3.6795e-04  3.0600e-04  1.6492e-05  3.8156e-04  1.7196e-05  
  iter  continuity   xvelocity   yvelocity   zvelocity    energy-T         tke         tef  
   951  1.4351e-04  4.4961e-04  3.6546e-04  3.0586e-04  7.6848e-05  4.5498e-04  1.3096e-04  
   952  1.5297e-04  5.0749e-04  3.8877e-04  3.1332e-04  7.5027e-05  4.1975e-04  5.2527e-05  
   953  1.4052e-04  4.9047e-04  3.7774e-04  3.0633e-04  4.2153e-05  3.9632e-04  7.8433e-05  
   954  1.3871e-04  4.5689e-04  3.5973e-04  3.0723e-04  2.6028e-05  3.7183e-04  2.9622e-05  
   955  1.3769e-04  4.3505e-04  3.4444e-04  2.9790e-04  2.5707e-05  3.7240e-04  2.3398e-05  
   956  1.3744e-04  4.6293e-04  3.7330e-04  2.9591e-04  1.6095e-05  3.5683e-04  1.5829e-05  
   957  1.3718e-04  4.1586e-04  3.2751e-04  2.8244e-04  1.4768e-05  3.5039e-04  1.4100e-05  
   958  1.3708e-04  3.9266e-04  3.0644e-04  2.7541e-04  1.8206e-05  3.4142e-04  1.8770e-05  
   959  1.3667e-04  3.7594e-04  2.9571e-04  2.6636e-04  1.7037e-05  3.3640e-04  1.3392e-05  
   960  1.3515e-04  3.7672e-04  2.9452e-04  2.6278e-04  1.4991e-05  3.2205e-04  1.2319e-05  
   961  1.3466e-04  3.5591e-04  2.8141e-04  2.5371e-04  1.5637e-05  3.0813e-04  1.2817e-05  
   962  1.3467e-04  3.4376e-04  2.7033e-04  2.4722e-04  1.6751e-05  2.9346e-04  1.7534e-05  
   963  1.3417e-04  3.3039e-04  2.6228e-04  2.4042e-04  1.7133e-05  2.7374e-04  1.1079e-05  
   964  1.3199e-04  3.1224e-04  2.5308e-04  2.3417e-04  2.5632e-05  2.6306e-04  3.3407e-05  
   965  1.3075e-04  3.1121e-04  2.6175e-04  2.3183e-04  1.5683e-05  2.4292e-04  2.0890e-05  
   966  1.3009e-04  2.8817e-04  2.4610e-04  2.2614e-04  1.5526e-05  2.2754e-04  1.4468e-05  
   967  1.3035e-04  2.7826e-04  2.4337e-04  2.2188e-04  1.5982e-05  2.1447e-04  9.9517e-06  
   968  1.3026e-04  2.6753e-04  2.3090e-04  2.1875e-04  1.4388e-05  2.0392e-04  8.7488e-06  
   969  1.3001e-04  2.5724e-04  2.2263e-04  2.1545e-04  1.4213e-05  1.9370e-04  7.9647e-06  
   970  1.2949e-04  2.5017e-04  2.1727e-04  2.1295e-04  1.4146e-05  1.8492e-04  7.7986e-06  
   971  1.2901e-04  2.4229e-04  2.1160e-04  2.1065e-04  1.4107e-05  1.7730e-04  7.4933e-06  
   972  1.2856e-04  2.3667e-04  2.0957e-04  2.0884e-04  1.4060e-05  1.7036e-04  7.4252e-06  
   973  1.2815e-04  2.3188e-04  2.0738e-04  2.0716e-04  1.4022e-05  1.6368e-04  7.2510e-06  
   974  1.2884e-04  2.2832e-04  2.0657e-04  2.0599e-04  2.2776e-05  1.6698e-04  2.9439e-05  
   975  1.2990e-04  2.3008e-04  2.0675e-04  2.0486e-04  1.5524e-05  1.5123e-04  1.8184e-05  
  iter  continuity   xvelocity   yvelocity   zvelocity    energy-T         tke         tef  
   976  1.2934e-04  2.2331e-04  2.0655e-04  2.0353e-04  1.6392e-05  1.3906e-04  1.1455e-05  
   977  1.2831e-04  2.2575e-04  2.1180e-04  2.0210e-04  1.4740e-05  1.3038e-04  8.1728e-06  
   978  1.2805e-04  2.2258e-04  2.0894e-04  2.0085e-04  1.3868e-05  1.2561e-04  7.6669e-06  
   979  1.2780e-04  2.1974e-04  2.1423e-04  1.9930e-04  1.5272e-05  1.2621e-04  1.3883e-05  
   980  1.2801e-04  2.2409e-04  2.1764e-04  1.9970e-04  2.3049e-05  1.3147e-04  2.3503e-05  
   981  1.2982e-04  2.2220e-04  2.2526e-04  1.9788e-04  1.5850e-05  1.3557e-04  2.6819e-05  
   982  1.3386e-04  2.3488e-04  2.4727e-04  2.0095e-04  4.5944e-05  2.5113e-04  9.2884e-05  
   983  1.3820e-04  2.5900e-04  2.5865e-04  2.0467e-04  9.2318e-05  2.5542e-04  8.4384e-05  
   984  1.2942e-04  3.0496e-04  2.8072e-04  2.0612e-04  1.6652e-05  1.9141e-04  4.8293e-05  
   985  1.2726e-04  2.5986e-04  2.6620e-04  2.0448e-04  1.5347e-05  1.7001e-04  3.8286e-05  
   986  1.2704e-04  3.0110e-04  3.0545e-04  2.1025e-04  3.0506e-05  1.5499e-04  2.2208e-05  
   987  1.2707e-04  2.5848e-04  2.5710e-04  2.0226e-04  1.7176e-05  1.5079e-04  1.7355e-05  
   988  1.2704e-04  2.3980e-04  2.6000e-04  1.9900e-04  1.4774e-05  1.5391e-04  1.4539e-05  
   989  1.3334e-04  2.4345e-04  2.5946e-04  2.0133e-04  1.0238e-04  3.6081e-04  1.6827e-04  
   990  1.4734e-04  3.5634e-04  2.8479e-04  2.1963e-04  1.1552e-04  3.1525e-04  8.8547e-05  
   991  1.3499e-04  3.7972e-04  3.0201e-04  2.2095e-04  7.2410e-05  3.0668e-04  8.3704e-05  
   992  1.3659e-04  3.3371e-04  2.8397e-04  2.1898e-04  9.7715e-05  3.0513e-04  9.8694e-05  
   993  1.2998e-04  3.4731e-04  2.9325e-04  2.1590e-04  1.9452e-05  2.4102e-04  6.8971e-05  
   994  1.2905e-04  2.8167e-04  3.0137e-04  2.2355e-04  2.3583e-05  1.8301e-04  3.3314e-05  
   995  1.2810e-04  2.5577e-04  3.0528e-04  2.1628e-04  1.5558e-05  1.8288e-04  2.7568e-05  
   996  1.2914e-04  2.5490e-04  3.1625e-04  2.1987e-04  2.0712e-05  1.8799e-04  2.1139e-05  
   997  1.3024e-04  2.5714e-04  3.2716e-04  2.2265e-04  1.4534e-05  1.9675e-04  1.8591e-05  
   998  1.3017e-04  2.5444e-04  3.3586e-04  2.2600e-04  1.5207e-05  2.0720e-04  1.9195e-05  
   999  1.2945e-04  2.5632e-04  3.4574e-04  2.2976e-04  1.4302e-05  2.1457e-04  1.7996e-05  
  1000  1.2936e-04  2.6027e-04  3.5531e-04  2.3342e-04  1.5025e-05  2.1802e-04  1.9963e-05  
Convergence criteria have not been met.
-------------------------------------------------------------------------------

===============================================================================
                                Variable Ranges                                
Variable                                              Minimum      Maximum  
-------------------------------------------------------------------------------
pbns-cpld/pressure                                 -2.56145e+01  9.45993e+01
pbns-cpld/velocity                                  1.24716e-04  1.92418e+01
energy-seg/temperature                              2.98149e+02  2.98358e+02
turb-seg/turbulent-viscosity                        3.17814e-17  1.84356e-04
-------------------------------------------------------------------------------


===============================================================================
                             Conservation Summary                              
Equation                                               Flow/Source
-------------------------------------------------------------------------------
pbns-cpld/velocity-0
    Flow (+ve in): Boundary 1                          -1.047e-03
    Flow (+ve in): Boundary 2                           1.053e-03
    Normalization factor                                6.117e-03
    Net imbalance                                       5.992e-06  (   0.098%)

pbns-cpld/velocity-1
    Flow (+ve in): Boundary 1                          -7.980e-07
    Flow (+ve in): Boundary 2                          -5.623e-09
    Normalization factor                                6.117e-03
    Net imbalance                                      -8.037e-07  (   0.013%)

pbns-cpld/velocity-2
    Flow (+ve in): Boundary 1                          -3.781e-07
    Flow (+ve in): Boundary 2                          -8.739e-10
    Normalization factor                                6.117e-03
    Net imbalance                                      -3.789e-07  (   0.006%)

pbns-cpld/pressure
    Flow (+ve in): Boundary 2                           5.270e-05
    Normalization factor                                5.270e-05
    Net imbalance                                       5.270e-05  ( 100.000%)

energy-seg/temperature
    Flow (+ve in): Boundary 2                           9.863e-03
    Sources: PhysicsRegion 1                           -2.710e-06
    Normalization factor                                9.866e-03
    Net imbalance                                       9.860e-03  (  99.942%)

turb-seg/tke
    Flow (+ve in): Boundary 1                          -2.770e-04
    Flow (+ve in): Boundary 2                           4.444e-05
    Sources: PhysicsRegion 1                            2.393e-04
    Normalization factor                                3.566e-04
    Net imbalance                                       6.703e-06  (   1.880%)

turb-seg/tef
    Flow (+ve in): Boundary 2                           1.559e-01
    Sources: PhysicsRegion 1                            2.998e+00
    Normalization factor                                1.375e+02
    Net imbalance                                       3.154e+00  (   2.294%)
-------------------------------------------------------------------------------



===============================================================================
                               Residual Summary                                
Equation                                      RMS Res     Max Res    Global ID
-------------------------------------------------------------------------------
pbns-cpld/pressure                           1.294e-04   6.526e-04        6418
pbns-cpld/velocity-0                         2.603e-04   5.148e-03        4998
pbns-cpld/velocity-1                         3.553e-04   1.364e-02        3687
pbns-cpld/velocity-2                         2.334e-04   3.793e-03        6458
energy-seg/temperature                       1.502e-05   5.833e-04        8391
turb-seg/tke                                 2.180e-04   8.214e-03        4146
turb-seg/tef                                 1.996e-05   6.648e-04        6614

                   Maximum Residual Location (cell centroid)
-------------------------------------------------------------------------------
pbns-cpld/pressure                           [ 3.349e-03  4.635e-03  8.130e-03]
pbns-cpld/velocity-0                         [ 5.823e-03  4.181e-04  7.007e-03]
pbns-cpld/velocity-1                         [ 4.687e-03  4.903e-03  5.154e-03]
pbns-cpld/velocity-2                         [ 4.301e-03  4.249e-03  4.376e-03]
energy-seg/temperature                       [ 1.077e-01  5.809e-03  9.431e-03]
turb-seg/tke                                 [ 5.686e-03  7.971e-04  6.909e-03]
turb-seg/tef                                 [ 4.028e-03  4.824e-03  5.790e-03]
-------------------------------------------------------------------------------

ANSYS(R) Fluid Dynamics

Executing from: D:\Softwares\Ansys 2020 R1\ANSYS Inc\v201\AFD\bin\afd.bat 

2020 R1

Point Releases and Patches installed:

ANSYS, Inc. Products 2020 R1
SpaceClaim 2020 R1
AIM 2020 R1
Live (includes SpaceClaim) 2020 R1
Autodyn 2020 R1
LS-DYNA 2020 R1
CFX (includes CFD-Post) 2020 R1
Chemkin 2020 R1
EnSight 2020 R1
FENSAP-ICE 2020 R1
Fluent (includes CFD-Post) 2020 R1
Forte 2020 R1
Polyflow (includes CFD-Post) 2020 R1
TurboGrid 2020 R1
ICEM CFD 2020 R1
Aqwa 2020 R1
Mechanical Products 2020 R1
Additive 2020 R1
ANSYS Sherlock 2020 R1
Icepak (includes CFD-Post) 2020 R1
ACIS Geometry Interface 2020 R1
AutoCAD Geometry Interface 2020 R1
Catia, Version 4 Geometry Interface 2020 R1
Catia, Version 5 Geometry Interface 2020 R1
Catia, Version 6 Geometry Interface 2020 R1
Creo Elements/Direct Modeling Geometry Interface 2020 R1
Creo Parametric Geometry Interface 2020 R1
Inventor Geometry Interface 2020 R1
JTOpen Geometry Interface 2020 R1
NX Geometry Interface 2020 R1
Parasolid Geometry Interface  2020 R1
Solid Edge Geometry Interface 2020 R1
SOLIDWORKS Geometry Interface 2020 R1
ANSYS, Inc. License Manager 2020 R1 

(c) 2014-2019 ANSYS, Inc. All rights reserved. Unauthorized use, distribution or duplication is prohibited. This product is subject to U.S. laws governing export and re-export. For full Legal Notice, see documentation.

Host spawning Node 0 on machine "DESKTOP-442D8MG" (win64).
WARNING: No cached password or password provided.
         use '-pass' or '-cache' to provide password
Host 0 -- ip 192.168.0.192 -- ranks 0 - 1

 host | 0
======|======
    0 : SHM

 Prot -  All Intra-node communication is: SHM


---------------------------------------------------------------------------------
ID          Hostname         Core  O.S.         PID   Vendor                     
---------------------------------------------------------------------------------
e1          DESKTOP-442D8MG  2/8  Windows-x64  964   Intel(R) Core(TM) i5-8300H 
e0*         DESKTOP-442D8MG  1/8  Windows-x64  1808  Intel(R) Core(TM) i5-8300H 
controller  DESKTOP-442D8MG       Windows-x64  5032  Intel(R) Core(TM) i5-8300H 

MPI Option Selected: ibmmpi
Selected system interconnect: ethernet
---------------------------------------------------------------------------------

Cleanup script file is C:\Users\Safayat\AppData\Local\Temp\er13djvy.jv2\cleanup-afd-DESKTOP-442D8MG-5032.bat
Done.

===============================================================================
                                Mesh Statistics                                
Region Name                                                               Value
-------------------------------------------------------------------------------
PhysicsRegion 1
    Number of cell zones                                                      1
    Number of cells                                                      13 988
        Polyhedral                                                       13 988
    Number of face zones                                                     65
    Number of faces                                                      56 648
    Bounding Box (m)                
        Minimum                              [-1.200e-02  0.000e+00  4.000e-03]
        Maximum                              [ 1.300e-01  1.100e-02  1.100e-02]
    Volume (m3)                                                       4.711e-06
    Minimum orthogonal quality                                        1.028e-01
    Maximum aspect ratio                                              8.100e+01

Total                               
    Number of cells                                                      13 988
    Number of faces                                                      56 648
    Number of nodes                                                      30 794
-------------------------------------------------------------------------------



999999: mpt_connect: error: connect failed: No error

999999: mpt_connect: error: connect failed: No error

999999: mpt_connect: error: connect failed: No error
0: mpt_connect: error: connect failed: No error

0: mpt_connect: error: connect failed: No error

0: mpt_connect: error: connect failed: No error
1: mpt_connect: error: connect failed: No error

1: mpt_connect: error: connect failed: No error

1: mpt_connect: error: connect failed: No error

999999: mpt_establish_connection: error: unable to connect: No error

999999: mpt_accept1: warning: accept failed

0: mpt_establish_connection: error: unable to connect: No error
1: mpt_establish_connection: error: unable to connect: No error
MPI Application rank 0 exited before MPI_Finalize() with status 2

ANSYS(R) Fluid Dynamics

Executing from: D:\Softwares\Ansys 2020 R1\ANSYS Inc\v201\AFD\bin\afd.bat 

2020 R1

Point Releases and Patches installed:

ANSYS, Inc. Products 2020 R1
SpaceClaim 2020 R1
AIM 2020 R1
Live (includes SpaceClaim) 2020 R1
Autodyn 2020 R1
LS-DYNA 2020 R1
CFX (includes CFD-Post) 2020 R1
Chemkin 2020 R1
EnSight 2020 R1
FENSAP-ICE 2020 R1
Fluent (includes CFD-Post) 2020 R1
Forte 2020 R1
Polyflow (includes CFD-Post) 2020 R1
TurboGrid 2020 R1
ICEM CFD 2020 R1
Aqwa 2020 R1
Mechanical Products 2020 R1
Additive 2020 R1
ANSYS Sherlock 2020 R1
Icepak (includes CFD-Post) 2020 R1
ACIS Geometry Interface 2020 R1
AutoCAD Geometry Interface 2020 R1
Catia, Version 4 Geometry Interface 2020 R1
Catia, Version 5 Geometry Interface 2020 R1
Catia, Version 6 Geometry Interface 2020 R1
Creo Elements/Direct Modeling Geometry Interface 2020 R1
Creo Parametric Geometry Interface 2020 R1
Inventor Geometry Interface 2020 R1
JTOpen Geometry Interface 2020 R1
NX Geometry Interface 2020 R1
Parasolid Geometry Interface  2020 R1
Solid Edge Geometry Interface 2020 R1
SOLIDWORKS Geometry Interface 2020 R1
ANSYS, Inc. License Manager 2020 R1 

(c) 2014-2019 ANSYS, Inc. All rights reserved. Unauthorized use, distribution or duplication is prohibited. This product is subject to U.S. laws governing export and re-export. For full Legal Notice, see documentation.

