
ANSYS(R) Fluid Dynamics

Executing from: D:\Softwares\Ansys 2020 R1\ANSYS Inc\v201\AFD\bin\afd.bat 

2020 R1

Point Releases and Patches installed:

ANSYS, Inc. Products 2020 R1
SpaceClaim 2020 R1
AIM 2020 R1
Live (includes SpaceClaim) 2020 R1
Autodyn 2020 R1
LS-DYNA 2020 R1
CFX (includes CFD-Post) 2020 R1
Chemkin 2020 R1
EnSight 2020 R1
FENSAP-ICE 2020 R1
Fluent (includes CFD-Post) 2020 R1
Forte 2020 R1
Polyflow (includes CFD-Post) 2020 R1
TurboGrid 2020 R1
ICEM CFD 2020 R1
Aqwa 2020 R1
Mechanical Products 2020 R1
Additive 2020 R1
ANSYS Sherlock 2020 R1
Icepak (includes CFD-Post) 2020 R1
ACIS Geometry Interface 2020 R1
AutoCAD Geometry Interface 2020 R1
Catia, Version 4 Geometry Interface 2020 R1
Catia, Version 5 Geometry Interface 2020 R1
Catia, Version 6 Geometry Interface 2020 R1
Creo Elements/Direct Modeling Geometry Interface 2020 R1
Creo Parametric Geometry Interface 2020 R1
Inventor Geometry Interface 2020 R1
JTOpen Geometry Interface 2020 R1
NX Geometry Interface 2020 R1
Parasolid Geometry Interface  2020 R1
Solid Edge Geometry Interface 2020 R1
SOLIDWORKS Geometry Interface 2020 R1
ANSYS, Inc. License Manager 2020 R1 

(c) 2014-2019 ANSYS, Inc. All rights reserved. Unauthorized use, distribution or duplication is prohibited. This product is subject to U.S. laws governing export and re-export. For full Legal Notice, see documentation.


ANSYS(R) Fluid Dynamics

Executing from: D:\Softwares\Ansys 2020 R1\ANSYS Inc\v201\AFD\bin\afd.bat 

2020 R1

Point Releases and Patches installed:

ANSYS, Inc. Products 2020 R1
SpaceClaim 2020 R1
AIM 2020 R1
Live (includes SpaceClaim) 2020 R1
Autodyn 2020 R1
LS-DYNA 2020 R1
CFX (includes CFD-Post) 2020 R1
Chemkin 2020 R1
EnSight 2020 R1
FENSAP-ICE 2020 R1
Fluent (includes CFD-Post) 2020 R1
Forte 2020 R1
Polyflow (includes CFD-Post) 2020 R1
TurboGrid 2020 R1
ICEM CFD 2020 R1
Aqwa 2020 R1
Mechanical Products 2020 R1
Additive 2020 R1
ANSYS Sherlock 2020 R1
Icepak (includes CFD-Post) 2020 R1
ACIS Geometry Interface 2020 R1
AutoCAD Geometry Interface 2020 R1
Catia, Version 4 Geometry Interface 2020 R1
Catia, Version 5 Geometry Interface 2020 R1
Catia, Version 6 Geometry Interface 2020 R1
Creo Elements/Direct Modeling Geometry Interface 2020 R1
Creo Parametric Geometry Interface 2020 R1
Inventor Geometry Interface 2020 R1
JTOpen Geometry Interface 2020 R1
NX Geometry Interface 2020 R1
Parasolid Geometry Interface  2020 R1
Solid Edge Geometry Interface 2020 R1
SOLIDWORKS Geometry Interface 2020 R1
ANSYS, Inc. License Manager 2020 R1 

(c) 2014-2019 ANSYS, Inc. All rights reserved. Unauthorized use, distribution or duplication is prohibited. This product is subject to U.S. laws governing export and re-export. For full Legal Notice, see documentation.


ANSYS(R) Fluid Dynamics

Executing from: D:\Softwares\Ansys 2020 R1\ANSYS Inc\v201\AFD\bin\afd.bat 

2020 R1

Point Releases and Patches installed:

ANSYS, Inc. Products 2020 R1
SpaceClaim 2020 R1
AIM 2020 R1
Live (includes SpaceClaim) 2020 R1
Autodyn 2020 R1
LS-DYNA 2020 R1
CFX (includes CFD-Post) 2020 R1
Chemkin 2020 R1
EnSight 2020 R1
FENSAP-ICE 2020 R1
Fluent (includes CFD-Post) 2020 R1
Forte 2020 R1
Polyflow (includes CFD-Post) 2020 R1
TurboGrid 2020 R1
ICEM CFD 2020 R1
Aqwa 2020 R1
Mechanical Products 2020 R1
Additive 2020 R1
ANSYS Sherlock 2020 R1
Icepak (includes CFD-Post) 2020 R1
ACIS Geometry Interface 2020 R1
AutoCAD Geometry Interface 2020 R1
Catia, Version 4 Geometry Interface 2020 R1
Catia, Version 5 Geometry Interface 2020 R1
Catia, Version 6 Geometry Interface 2020 R1
Creo Elements/Direct Modeling Geometry Interface 2020 R1
Creo Parametric Geometry Interface 2020 R1
Inventor Geometry Interface 2020 R1
JTOpen Geometry Interface 2020 R1
NX Geometry Interface 2020 R1
Parasolid Geometry Interface  2020 R1
Solid Edge Geometry Interface 2020 R1
SOLIDWORKS Geometry Interface 2020 R1
ANSYS, Inc. License Manager 2020 R1 

(c) 2014-2019 ANSYS, Inc. All rights reserved. Unauthorized use, distribution or duplication is prohibited. This product is subject to U.S. laws governing export and re-export. For full Legal Notice, see documentation.


ANSYS(R) Fluid Dynamics

Executing from: D:\Softwares\Ansys 2020 R1\ANSYS Inc\v201\AFD\bin\afd.bat 

2020 R1

Point Releases and Patches installed:

ANSYS, Inc. Products 2020 R1
SpaceClaim 2020 R1
AIM 2020 R1
Live (includes SpaceClaim) 2020 R1
Autodyn 2020 R1
LS-DYNA 2020 R1
CFX (includes CFD-Post) 2020 R1
Chemkin 2020 R1
EnSight 2020 R1
FENSAP-ICE 2020 R1
Fluent (includes CFD-Post) 2020 R1
Forte 2020 R1
Polyflow (includes CFD-Post) 2020 R1
TurboGrid 2020 R1
ICEM CFD 2020 R1
Aqwa 2020 R1
Mechanical Products 2020 R1
Additive 2020 R1
ANSYS Sherlock 2020 R1
Icepak (includes CFD-Post) 2020 R1
ACIS Geometry Interface 2020 R1
AutoCAD Geometry Interface 2020 R1
Catia, Version 4 Geometry Interface 2020 R1
Catia, Version 5 Geometry Interface 2020 R1
Catia, Version 6 Geometry Interface 2020 R1
Creo Elements/Direct Modeling Geometry Interface 2020 R1
Creo Parametric Geometry Interface 2020 R1
Inventor Geometry Interface 2020 R1
JTOpen Geometry Interface 2020 R1
NX Geometry Interface 2020 R1
Parasolid Geometry Interface  2020 R1
Solid Edge Geometry Interface 2020 R1
SOLIDWORKS Geometry Interface 2020 R1
ANSYS, Inc. License Manager 2020 R1 

(c) 2014-2019 ANSYS, Inc. All rights reserved. Unauthorized use, distribution or duplication is prohibited. This product is subject to U.S. laws governing export and re-export. For full Legal Notice, see documentation.

